03_OpenDSS_Circuits/ERaleigh_Circuit_Opendss/UGLines.DSS
New Line.263514997 Bus1=263514994.1.2.3 Bus2=260745387.1.2.3 LineCode=1/0-AL-HMWPECN-15KV Phases= 3  Length=12.440000 units=m
New Line.260972099 Bus1=260972100.2 Bus2=260972095.2 LineCode=1/0-AL-TRXLPELCJ-15KV Phases= 1  Length=105.600000 units=m
New Line.261002729 Bus1=261002726.2 Bus2=261002710.2 LineCode=1/0-AL-TRXLPELCJ-15KV Phases= 1  Length=87.560000 units=m
New Line.260784288 Bus1=260784285.3 Bus2=260784290.3 LineCode=1/0-AL-HMWPECN-15KV Phases= 1  Length=34.400000 units=m
New Line.260784283 Bus1=260784280.3 Bus2=260784285.3 LineCode=1/0-AL-HMWPECN-15KV Phases= 1  Length=73.500000 units=m
New Line.260972114 Bus1=260972111.3 Bus2=260972116.3 LineCode=1/0-AL-TRXLPELCJ-15KV Phases= 1  Length=207.700000 units=m
New Line.261002704 Bus1=261002705.2 Bus2=261002706.2 LineCode=1/0-AL-TRXLPELCJ-15KV Phases= 1  Length=203.600000 units=m
New Line.260972119 Bus1=260972116.3 Bus2=260972080.3 LineCode=1/0-AL-TRXLPELCJ-15KV Phases= 1  Length=127.600000 units=m
New Line.261031162 Bus1=261031159.1 Bus2=260972090.1 LineCode=1/0-AL-TRXLPELCJ-15KV Phases= 1  Length=152.100000 units=m
New Line.260784308 Bus1=260784305.3 Bus2=260784310.3 LineCode=1/0-AL-HMWPECN-15KV Phases= 1  Length=86.670000 units=m
New Line.460932370 Bus1=460932367.1.2.3 Bus2=261124323.1.2.3 LineCode=1/0-AL-TRXLPELCJ-15KV Phases= 3  Length=167.500000 units=m
New Line.261085131 Bus1=261085132.1 Bus2=261085133.1 LineCode=1/0-AL-TRXLPELCJ-15KV Phases= 1  Length=45.410000 units=m
New Line.460932377 Bus1=259357188.1.2.3 Bus2=460932379.1.2.3 LineCode=1/0-AL-TRXLPELCJ-15KV Phases= 3  Length=1.530000 units=m
New Line.260784303 Bus1=260784300.3 Bus2=260784305.3 LineCode=1/0-AL-HMWPECN-15KV Phases= 1  Length=65.590000 units=m
New Line.263730568 Bus1=259237105.1 Bus2=263730570.1 LineCode=1/0-AL-TRXLPELCJ-15KV Phases= 1  Length=1.530000 units=m
New Line.263730564 Bus1=263730561.1 Bus2=261002746.1 LineCode=1/0-AL-TRXLPELCJ-15KV Phases= 1  Length=79.050000 units=m
New Line.469800070 Bus1=469800067.1.2.3 Bus2=472683966.1.2.3 LineCode=1/0-AL-TRXLPELCJ-15KV Phases= 3  Length=5.980000 units=m
New Line.460932411 Bus1=259357189.1.2.3 Bus2=460932413.1.2.3 LineCode=1/0-AL-TRXLPELCJ-15KV Phases= 3  Length=1.510000 units=m
New Line.264254807 Bus1=260745462.2 Bus2=264254805.2 LineCode=1/0-AL-HMWPECN-15KV Phases= 1  Length=10.140000 units=m
New Line.261107769 Bus1=261085128.1 Bus2=261107771.1 LineCode=1/0-AL-TRXLPELCJ-15KV Phases= 1  Length=51.570000 units=m
New Line.260745475 Bus1=260745472.3 Bus2=260745427.3 LineCode=1/0-AL-HMWPECN-15KV Phases= 1  Length=13.470000 units=m
New Line.263862865 Bus1=259371848.1 Bus2=263862867.1 LineCode=1/0-AL-TRXLPELCJ-15KV Phases= 1  Length=1.520000 units=m
New Line.460932399 Bus1=259357189.1.2.3 Bus2=460932401.1.2.3 LineCode=1/0-AL-TRXLPELCJ-15KV Phases= 3  Length=1.520000 units=m
New Line.263565066 Bus1=259004985.3 Bus2=263565068.3 LineCode=1/0-AL-HMWPECN-15KV Phases= 1  Length=1.530000 units=m
New Line.264311804 Bus1=261124323.1.2.3 Bus2=264311802.1.2.3 LineCode=1/0-AL-TRXLPELCJ-15KV Phases= 3  Length=94.220000 units=m
New Line.260745435 Bus1=260745432.2 Bus2=260745437.2 LineCode=1/0-AL-HMWPECN-15KV Phases= 1  Length=166.900000 units=m
New Line.263730582 Bus1=263730579.2 Bus2=261002716.2 LineCode=1/0-AL-TRXLPELCJ-15KV Phases= 1  Length=119.200000 units=m
New Line.263730586 Bus1=259237110.2 Bus2=263730588.2 LineCode=1/0-AL-TRXLPELCJ-15KV Phases= 1  Length=1.530000 units=m
New Line.263701642 Bus1=263701639.2 Bus2=260972100.2 LineCode=1/0-AL-TRXLPELCJ-15KV Phases= 1  Length=592.600000 units=m
New Line.264292384 Bus1=260972090.1 Bus2=264292382.1 LineCode=1/0-AL-TRXLPELCJ-15KV Phases= 1  Length=74.860000 units=m
New Line.263701628 Bus1=258851446.1 Bus2=263701630.1 LineCode=1/0-AL-TRXLPELCJ-15KV Phases= 1  Length=1.520000 units=m
New Line.263701624 Bus1=263701621.3 Bus2=260972111.3 LineCode=1/0-AL-TRXLPELCJ-15KV Phases= 1  Length=165.700000 units=m
New Line.263511707 Bus1=258840200.1.2.3 Bus2=263511709.1.2.3 LineCode=1/0-AL-HMWPECN-15KV Phases= 3  Length=1.520000 units=m
New Line.263701601 Bus1=258851447.2 Bus2=263701603.2 LineCode=1/0-AL-TRXLPELCJ-15KV Phases= 1  Length=1.520000 units=m
New Line.263701606 Bus1=263701603.2 Bus2=261031178.2 LineCode=1/0-AL-TRXLPELCJ-15KV Phases= 1  Length=731.400000 units=m
New Line.263565080 Bus1=263565077.3 Bus2=260784245.3 LineCode=1/0-AL-HMWPECN-15KV Phases= 1  Length=296.000000 units=m
New Line.260745310 Bus1=260745311.1.2.3 Bus2=260745312.1.2.3 LineCode=1/0-AL-HMWPECN-15KV Phases= 3  Length=36.360000 units=m
New Line.263565084 Bus1=259005092.1.2.3 Bus2=263565086.1.2.3 LineCode=1/0-AL-HMWPECN-15KV Phases= 3  Length=1.520000 units=m
New Line.263565089 Bus1=263565086.1.2.3 Bus2=260784225.1.2.3 LineCode=1/0-AL-HMWPECN-15KV Phases= 3  Length=292.700000 units=m
New Line.466987567 Bus1=466987507.1.2.3 Bus2=466987565.1.2.3 LineCode=1/0-AL-HMWPECN-15KV Phases= 3  Length=7.600000 units=m
New Line.263515060 Bus1=263515057.2 Bus2=260745457.2 LineCode=1/0-AL-HMWPECN-15KV Phases= 1  Length=163.600000 units=m
New Line.466987568 Bus1=466987565.1.2.3 Bus2=260745407.1.2.3 LineCode=1/0-AL-HMWPECN-15KV Phases= 3  Length=12.700000 units=m
New Line.263515064 Bus1=258851096.3 Bus2=263515066.3 LineCode=1/0-AL-HMWPECN-15KV Phases= 1  Length=1.530000 units=m
New Line.263515069 Bus1=263515066.3 Bus2=260745417.3 LineCode=1/0-AL-HMWPECN-15KV Phases= 1  Length=67.720000 units=m
New Line.263515163 Bus1=258851471.1.2.3 Bus2=263515165.1.2.3 LineCode=1/0-AL-HMWPECN-15KV Phases= 3  Length=1.520000 units=m
New Line.263515168 Bus1=263515165.1.2.3 Bus2=260745494.1.2.3 LineCode=1/0-AL-HMWPECN-15KV Phases= 3  Length=43.980000 units=m
New Line.263515046 Bus1=258851091.3 Bus2=263515048.3 LineCode=1/0-AL-HMWPECN-15KV Phases= 1  Length=1.520000 units=m
New Line.263815486 Bus1=263815483.1 Bus2=261085132.1 LineCode=1/0-AL-TRXLPELCJ-15KV Phases= 1  Length=297.800000 units=m
New Line.263815481 Bus1=259312123.1 Bus2=263815483.1 LineCode=1/0-AL-TRXLPELCJ-15KV Phases= 1  Length=1.530000 units=m
New Line.263515028 Bus1=258851049.1 Bus2=263515030.1 LineCode=1/0-AL-HMWPECN-15KV Phases= 1  Length=16.830000 units=m
New Line.260987677 Bus1=260745346.1.2.3 Bus2=260987679.1.2.3 LineCode=1/0-AL-TRXLPELCJ-15KV Phases= 3  Length=11.640000 units=m
New Line.263515123 Bus1=263515120.1 Bus2=260745447.1 LineCode=1/0-AL-HMWPECN-15KV Phases= 1  Length=149.800000 units=m
New Line.264341153 Bus1=261311161.1.2.3 Bus2=264341151.1.2.3 LineCode=1/0-AL-TRXLPELCJ-15KV Phases= 3  Length=15.110000 units=m
New Line.263515109 Bus1=258851175.1 Bus2=263515111.1 LineCode=1/0-AL-HMWPECN-15KV Phases= 1  Length=1.520000 units=m
New Line.472684497 Bus1=472684459.1.2.3 Bus2=472684499.1.2.3 LineCode=1/0-AL-TRXLPELCJ-15KV Phases= 3  Length=120.500000 units=m
New Line.472684357 Bus1=261124294.1.2.3 Bus2=261124288.1.2.3 LineCode=1/0-AL-TRXLPELCJ-15KV Phases= 3  Length=68.240000 units=m
New Line.472684231 Bus1=261124314.1.2.3 Bus2=261123019.1.2.3 LineCode=1/0-AL-TRXLPELCJ-15KV Phases= 3  Length=116.400000 units=m
New Line.472684516 Bus1=472684499.1.2.3 Bus2=260745306.1.2.3 LineCode=1/0-AL-TRXLPELCJ-15KV Phases= 3  Length=137.600000 units=m
New Line.472684339 Bus1=261124288.1.2.3 Bus2=261124289.1.2.3 LineCode=1/0-AL-TRXLPELCJ-15KV Phases= 3  Length=171.300000 units=m
New Line.472684297 Bus1=472684299.1.2.3 Bus2=261124289.1.2.3 LineCode=1/0-AL-TRXLPELCJ-15KV Phases= 3  Length=1.510000 units=m
New Line.263514844 Bus1=263514841.1.2.3 Bus2=260745329.1.2.3 LineCode=1/0-AL-HMWPECN-15KV Phases= 3  Length=32.410000 units=m
New Line.263514821 Bus1=258850618.1.2.3 Bus2=263514823.1.2.3 LineCode=1/0-AL-TRXLPELCJ-15KV Phases= 3  Length=1.530000 units=m
New Line.260784278 Bus1=260784275.3 Bus2=260784280.3 LineCode=1/0-AL-HMWPECN-15KV Phases= 1  Length=60.820000 units=m
New Line.263514826 Bus1=263514823.1.2.3 Bus2=260745311.1.2.3 LineCode=1/0-AL-TRXLPELCJ-15KV Phases= 3  Length=173.600000 units=m
New Line.261002774 Bus1=261002775.1 Bus2=261002770.1 LineCode=1/0-AL-TRXLPELCJ-15KV Phases= 1  Length=18.680000 units=m
New Line.263514803 Bus1=258850608.1.2.3 Bus2=263514805.1.2.3 LineCode=1/0-AL-HMWPECN-15KV Phases= 3  Length=1.530000 units=m
New Line.263514880 Bus1=263514877.1.2.3 Bus2=260745397.1.2.3 LineCode=1/0-AL-HMWPECN-15KV Phases= 3  Length=47.380000 units=m
New Line.260784258 Bus1=260784255.3 Bus2=260784260.3 LineCode=1/0-AL-HMWPECN-15KV Phases= 1  Length=104.800000 units=m
New Line.264279392 Bus1=260745422.3 Bus2=264279390.3 LineCode=1/0-AL-HMWPECN-15KV Phases= 1  Length=87.120000 units=m
New Line.260972124 Bus1=260972125.3 Bus2=260972085.3 LineCode=1/0-AL-TRXLPELCJ-15KV Phases= 1  Length=157.000000 units=m
New Line.263514808 Bus1=263514805.1.2.3 Bus2=260745322.1.2.3 LineCode=1/0-AL-HMWPECN-15KV Phases= 3  Length=37.800000 units=m
New Line.260784253 Bus1=260784250.3 Bus2=260784255.3 LineCode=1/0-AL-HMWPECN-15KV Phases= 1  Length=55.640000 units=m
New Line.261002754 Bus1=261002751.1 Bus2=261002756.1 LineCode=1/0-AL-TRXLPELCJ-15KV Phases= 1  Length=41.940000 units=m
New Line.264259415 Bus1=260784230.1.2.3 Bus2=264259413.1.2.3 LineCode=1/0-AL-HMWPECN-15KV Phases= 3  Length=329.700000 units=m
New Line.264285924 Bus1=261002710.2 Bus2=264285922.2 LineCode=1/0-AL-TRXLPELCJ-15KV Phases= 1  Length=66.320000 units=m
New Line.264259411 Bus1=260784225.1.2.3 Bus2=264259413.1.2.3 LineCode=1/0-AL-HMWPECN-15KV Phases= 3  Length=1.510000 units=m
New Line.263514902 Bus1=258850750.1.2.3 Bus2=263514904.1.2.3 LineCode=1/0-AL-TRXLPELCJ-15KV Phases= 3  Length=1.530000 units=m
New Line.263514983 Bus1=258850929.1.2.3 Bus2=263514985.1.2.3 LineCode=1/0-AL-HMWPECN-15KV Phases= 3  Length=1.520000 units=m
New Line.260972084 Bus1=260972085.3 Bus2=260972081.3 LineCode=1/0-AL-TRXLPELCJ-15KV Phases= 1  Length=112.200000 units=m
New Line.263514907 Bus1=263514904.1.2.3 Bus2=260745346.1.2.3 LineCode=1/0-AL-TRXLPELCJ-15KV Phases= 3  Length=27.580000 units=m
New Line.261002759 Bus1=261002756.1 Bus2=261002761.1 LineCode=1/0-AL-TRXLPELCJ-15KV Phases= 1  Length=188.100000 units=m
New Line.263514988 Bus1=263514985.1.2.3 Bus2=260745392.1.2.3 LineCode=1/0-AL-HMWPECN-15KV Phases= 3  Length=12.390000 units=m
New Line.472683992 Bus1=261124328.1.2.3 Bus2=472683990.1.2.3 LineCode=1/0-AL-TRXLPELCJ-15KV Phases= 3  Length=245.400000 units=m
New Line.260972104 Bus1=260972105.1 Bus2=260972091.1 LineCode=1/0-AL-TRXLPELCJ-15KV Phases= 1  Length=151.100000 units=m
New Line.261002734 Bus1=261002735.2 Bus2=261002705.2 LineCode=1/0-AL-TRXLPELCJ-15KV Phases= 1  Length=74.950000 units=m
New Line.261002694 Bus1=261002695.1 Bus2=261002696.1 LineCode=1/0-AL-TRXLPELCJ-15KV Phases= 1  Length=23.090000 units=m
New Line.460932365 Bus1=259357188.1.2.3 Bus2=460932367.1.2.3 LineCode=1/0-AL-TRXLPELCJ-15KV Phases= 3  Length=1.540000 units=m
New Line.260784298 Bus1=260784295.3 Bus2=260784300.3 LineCode=1/0-AL-HMWPECN-15KV Phases= 1  Length=42.270000 units=m
New Line.260784293 Bus1=260784290.3 Bus2=260784295.3 LineCode=1/0-AL-HMWPECN-15KV Phases= 1  Length=131.600000 units=m
New Line.261031177 Bus1=261031178.2 Bus2=261031173.2 LineCode=1/0-AL-TRXLPELCJ-15KV Phases= 1  Length=101.100000 units=m
New Line.261031172 Bus1=261031173.2 Bus2=260972141.2 LineCode=1/0-AL-TRXLPELCJ-15KV Phases= 1  Length=59.920000 units=m
New Line.260874524 Bus1=258851069.3 Bus2=260874526.3 LineCode=1/0-AL-TRXLPELCJ-15KV Phases= 1  Length=152.900000 units=m
New Line.261002719 Bus1=261002716.2 Bus2=261002721.2 LineCode=1/0-AL-TRXLPELCJ-15KV Phases= 1  Length=61.870000 units=m
New Line.260784313 Bus1=260784310.3 Bus2=260784315.3 LineCode=1/0-AL-HMWPECN-15KV Phases= 1  Length=35.540000 units=m
New Line.460932489 Bus1=258840435.1.2.3 Bus2=460932491.1.2.3 LineCode=1/0-AL-HMWPECN-15KV Phases= 3  Length=1.510000 units=m
New Line.260745460 Bus1=260745457.2 Bus2=260745462.2 LineCode=1/0-AL-HMWPECN-15KV Phases= 1  Length=73.960000 units=m
New Line.261031157 Bus1=261031154.1 Bus2=261031159.1 LineCode=1/0-AL-TRXLPELCJ-15KV Phases= 1  Length=206.700000 units=m
New Line.263730573 Bus1=263730570.1 Bus2=261002775.1 LineCode=1/0-AL-TRXLPELCJ-15KV Phases= 1  Length=118.200000 units=m
New Line.263730577 Bus1=259237105.2 Bus2=263730579.2 LineCode=1/0-AL-TRXLPELCJ-15KV Phases= 1  Length=1.520000 units=m
New Line.264254816 Bus1=260745442.1 Bus2=264254814.1 LineCode=1/0-AL-HMWPECN-15KV Phases= 1  Length=197.900000 units=m
New Line.469800069 Bus1=264311802.1.2.3 Bus2=469800067.1.2.3 LineCode=1/0-AL-TRXLPELCJ-15KV Phases= 3  Length=1.010000 units=m
New Line.263730559 Bus1=259237110.1 Bus2=263730561.1 LineCode=1/0-AL-TRXLPELCJ-15KV Phases= 1  Length=1.520000 units=m
New Line.263862870 Bus1=263862867.1 Bus2=261137364.1 LineCode=1/0-AL-TRXLPELCJ-15KV Phases= 1  Length=88.490000 units=m
New Line.460932382 Bus1=460932379.1.2.3 Bus2=261124328.1.2.3 LineCode=1/0-AL-TRXLPELCJ-15KV Phases= 3  Length=229.200000 units=m
New Line.260745420 Bus1=260745417.3 Bus2=260745422.3 LineCode=1/0-AL-HMWPECN-15KV Phases= 1  Length=131.100000 units=m
New Line.263565071 Bus1=263565068.3 Bus2=260784275.3 LineCode=1/0-AL-HMWPECN-15KV Phases= 1  Length=67.040000 units=m
New Line.263565075 Bus1=259004990.3 Bus2=263565077.3 LineCode=1/0-AL-HMWPECN-15KV Phases= 1  Length=1.520000 units=m
New Line.263730591 Bus1=263730588.2 Bus2=261002735.2 LineCode=1/0-AL-TRXLPELCJ-15KV Phases= 1  Length=376.100000 units=m
New Line.263973870 Bus1=259005072.1.2.3 Bus2=263973872.1.2.3 LineCode=1/0-AL-HMWPECN-15KV Phases= 3  Length=1.520000 units=m
New Line.263973875 Bus1=263973872.1.2.3 Bus2=260784240.1.2.3 LineCode=1/0-AL-HMWPECN-15KV Phases= 3  Length=106.100000 units=m
New Line.264292393 Bus1=260972096.2 Bus2=264292391.2 LineCode=1/0-AL-TRXLPELCJ-15KV Phases= 1  Length=206.000000 units=m
New Line.263701633 Bus1=263701630.1 Bus2=261031154.1 LineCode=1/0-AL-TRXLPELCJ-15KV Phases= 1  Length=467.100000 units=m
New Line.263511712 Bus1=263511709.1.2.3 Bus2=260745482.1.2.3 LineCode=1/0-AL-HMWPECN-15KV Phases= 3  Length=19.990000 units=m
New Line.263701637 Bus1=258851446.2 Bus2=263701639.2 LineCode=1/0-AL-TRXLPELCJ-15KV Phases= 1  Length=1.520000 units=m
New Line.260745380 Bus1=258850929.1.2.3 Bus2=260745382.1.2.3 LineCode=1/0-AL-HMWPECN-15KV Phases= 3  Length=12.220000 units=m
New Line.263701619 Bus1=258851446.3 Bus2=263701621.3 LineCode=1/0-AL-TRXLPELCJ-15KV Phases= 1  Length=1.520000 units=m
New Line.462745745 Bus1=258840361.1.2.3 Bus2=462745747.1.2.3 LineCode=1/0-AL-HMWPECN-15KV Phases= 3  Length=1.540000 units=m
New Line.263701610 Bus1=258851447.3 Bus2=263701612.3 LineCode=1/0-AL-TRXLPELCJ-15KV Phases= 1  Length=1.520000 units=m
New Line.263565093 Bus1=259005099.1.2.3 Bus2=263565095.1.2.3 LineCode=1/0-AL-HMWPECN-15KV Phases= 3  Length=1.520000 units=m
New Line.263701615 Bus1=263701612.3 Bus2=260972125.3 LineCode=1/0-AL-TRXLPELCJ-15KV Phases= 1  Length=216.400000 units=m
New Line.263565098 Bus1=263565095.1.2.3 Bus2=260784230.1.2.3 LineCode=1/0-AL-HMWPECN-15KV Phases= 3  Length=83.060000 units=m
New Line.264021664 Bus1=258850755.1.2.3 Bus2=264021666.1.2.3 LineCode=1/0-AL-TRXLPELCJ-15KV Phases= 3  Length=1.530000 units=m
New Line.263701592 Bus1=258851447.1 Bus2=263701594.1 LineCode=1/0-AL-TRXLPELCJ-15KV Phases= 1  Length=1.520000 units=m
New Line.263701597 Bus1=263701594.1 Bus2=260972105.1 LineCode=1/0-AL-TRXLPELCJ-15KV Phases= 1  Length=368.000000 units=m
New Line.264021669 Bus1=264021666.1.2.3 Bus2=261311161.1.2.3 LineCode=1/0-AL-TRXLPELCJ-15KV Phases= 3  Length=22.810000 units=m
New Line.263515073 Bus1=258851103.2 Bus2=263515075.2 LineCode=1/0-AL-HMWPECN-15KV Phases= 1  Length=1.520000 units=m
New Line.472684462 Bus1=472683911.1.2.3 Bus2=472684459.1.2.3 LineCode=1/0-AL-TRXLPELCJ-15KV Phases= 3  Length=78.600000 units=m
New Line.263515078 Bus1=263515075.2 Bus2=260745432.2 LineCode=1/0-AL-HMWPECN-15KV Phases= 1  Length=46.510000 units=m
New Line.466987550 Bus1=460932491.1.2.3 Bus2=466987549.1.2.3 LineCode=1/0-AL-HMWPECN-15KV Phases= 3  Length=79.530000 units=m
New Line.466987551 Bus1=466987549.1.2.3 Bus2=466987507.1.2.3 LineCode=1/0-AL-HMWPECN-15KV Phases= 3  Length=8.360000 units=m
New Line.263515051 Bus1=263515048.3 Bus2=260745472.3 LineCode=1/0-AL-HMWPECN-15KV Phases= 1  Length=302.700000 units=m
New Line.263515055 Bus1=258851096.2 Bus2=263515057.2 LineCode=1/0-AL-HMWPECN-15KV Phases= 1  Length=1.520000 units=m
New Line.264254789 Bus1=260745334.1.2.3 Bus2=264254787.1.2.3 LineCode=1/0-AL-HMWPECN-15KV Phases= 3  Length=24.640000 units=m
New Line.264254785 Bus1=264254787.1.2.3 Bus2=260745329.1.2.3 LineCode=1/0-AL-HMWPECN-15KV Phases= 3  Length=1.520000 units=m
New Line.263515154 Bus1=258851452.1.2.3 Bus2=263515156.1.2.3 LineCode=1/0-AL-HMWPECN-15KV Phases= 3  Length=1.530000 units=m
New Line.263515033 Bus1=263515030.1 Bus2=260745412.1 LineCode=1/0-AL-HMWPECN-15KV Phases= 1  Length=25.830000 units=m
New Line.264341149 Bus1=260987679.1.2.3 Bus2=264341151.1.2.3 LineCode=1/0-AL-TRXLPELCJ-15KV Phases= 3  Length=1.520000 units=m
New Line.263515159 Bus1=263515156.1.2.3 Bus2=260745487.1.2.3 LineCode=1/0-AL-HMWPECN-15KV Phases= 3  Length=79.880000 units=m
New Line.472684368 Bus1=460932401.1.2.3 Bus2=261124294.1.2.3 LineCode=1/0-AL-TRXLPELCJ-15KV Phases= 3  Length=326.200000 units=m
New Line.263815495 Bus1=263815492.1 Bus2=261085128.1 LineCode=1/0-AL-TRXLPELCJ-15KV Phases= 1  Length=87.380000 units=m
New Line.263815490 Bus1=259312123.1 Bus2=263815492.1 LineCode=1/0-AL-TRXLPELCJ-15KV Phases= 1  Length=1.520000 units=m
New Line.263515010 Bus1=258851004.1.2.3 Bus2=263515012.1.2.3 LineCode=1/0-AL-HMWPECN-15KV Phases= 3  Length=1.520000 units=m
New Line.263515015 Bus1=263515012.1.2.3 Bus2=260745402.1.2.3 LineCode=1/0-AL-HMWPECN-15KV Phases= 3  Length=79.800000 units=m
New Line.264275007 Bus1=260972080.3 Bus2=264275005.3 LineCode=1/0-AL-TRXLPELCJ-15KV Phases= 1  Length=245.000000 units=m
New Line.472684225 Bus1=261124309.1.2.3 Bus2=261124314.1.2.3 LineCode=1/0-AL-TRXLPELCJ-15KV Phases= 3  Length=390.900000 units=m
New Line.264275003 Bus1=264275005.3 Bus2=260972081.3 LineCode=1/0-AL-TRXLPELCJ-15KV Phases= 1  Length=1.520000 units=m
New Line.472684220 Bus1=460932413.1.2.3 Bus2=261124309.1.2.3 LineCode=1/0-AL-TRXLPELCJ-15KV Phases= 3  Length=164.800000 units=m
New Line.263515114 Bus1=263515111.1 Bus2=260745442.1 LineCode=1/0-AL-HMWPECN-15KV Phases= 1  Length=50.050000 units=m
New Line.263515118 Bus1=258851118.1 Bus2=263515120.1 LineCode=1/0-AL-HMWPECN-15KV Phases= 1  Length=1.520000 units=m
New Line.472684283 Bus1=261123019.1.2.3 Bus2=261123020.1.2.3 LineCode=1/0-AL-TRXLPELCJ-15KV Phases= 3  Length=169.200000 units=m
New Line.263514875 Bus1=258850705.1.2.3 Bus2=263514877.1.2.3 LineCode=1/0-AL-HMWPECN-15KV Phases= 3  Length=1.520000 units=m
New Line.472684281 Bus1=261123020.1.2.3 Bus2=472684279.1.2.3 LineCode=1/0-AL-TRXLPELCJ-15KV Phases= 3  Length=224.000000 units=m
New Line.264316524 Bus1=261002700.1 Bus2=264316522.1 LineCode=1/0-AL-TRXLPELCJ-15KV Phases= 1  Length=58.040000 units=m
New Line.472684301 Bus1=472684279.1.2.3 Bus2=472684299.1.2.3 LineCode=1/0-AL-TRXLPELCJ-15KV Phases= 3  Length=2.200000 units=m
New Line.260784268 Bus1=260784265.3 Bus2=260784270.3 LineCode=1/0-AL-HMWPECN-15KV Phases= 1  Length=107.300000 units=m
New Line.260784263 Bus1=260784260.3 Bus2=260784265.3 LineCode=1/0-AL-HMWPECN-15KV Phases= 1  Length=68.780000 units=m
New Line.261002764 Bus1=261002761.1 Bus2=261002700.1 LineCode=1/0-AL-TRXLPELCJ-15KV Phases= 1  Length=2.830000 units=m
New Line.472684083 Bus1=462745747.1.2.3 Bus2=472684080.1.2.3 LineCode=1/0-AL-HMWPECN-15KV Phases= 3  Length=239.100000 units=m
New Line.261002769 Bus1=261002770.1 Bus2=261002695.1 LineCode=1/0-AL-TRXLPELCJ-15KV Phases= 1  Length=75.250000 units=m
New Line.264279388 Bus1=260745427.3 Bus2=264279390.3 LineCode=1/0-AL-HMWPECN-15KV Phases= 1  Length=1.520000 units=m
New Line.263514830 Bus1=258850623.1.2.3 Bus2=263514832.1.2.3 LineCode=1/0-AL-HMWPECN-15KV Phases= 3  Length=1.520000 units=m
New Line.260784248 Bus1=260784245.3 Bus2=260784250.3 LineCode=1/0-AL-HMWPECN-15KV Phases= 1  Length=53.220000 units=m
New Line.263514835 Bus1=263514832.1.2.3 Bus2=260745334.1.2.3 LineCode=1/0-AL-HMWPECN-15KV Phases= 3  Length=26.550000 units=m
New Line.263514839 Bus1=258850623.1.2.3 Bus2=263514841.1.2.3 LineCode=1/0-AL-HMWPECN-15KV Phases= 3  Length=1.520000 units=m
New Line.264304369 Bus1=261107771.1 Bus2=264304367.1 LineCode=1/0-AL-TRXLPELCJ-15KV Phases= 1  Length=95.620000 units=m
New Line.261002749 Bus1=261002746.1 Bus2=261002751.1 LineCode=1/0-AL-TRXLPELCJ-15KV Phases= 1  Length=58.760000 units=m
New Line.472683909 Bus1=469799524.1.2.3 Bus2=472683911.1.2.3 LineCode=1/0-AL-TRXLPELCJ-15KV Phases= 3  Length=1.540000 units=m
New Line.472683988 Bus1=472683990.1.2.3 Bus2=472683966.1.2.3 LineCode=1/0-AL-TRXLPELCJ-15KV Phases= 3  Length=1.540000 units=m
New Line.263514812 Bus1=258850613.1.2.3 Bus2=263514814.1.2.3 LineCode=1/0-AL-HMWPECN-15KV Phases= 3  Length=1.530000 units=m
New Line.263514817 Bus1=263514814.1.2.3 Bus2=260745317.1.2.3 LineCode=1/0-AL-HMWPECN-15KV Phases= 3  Length=129.000000 units=m
New Line.261002724 Bus1=261002721.2 Bus2=261002726.2 LineCode=1/0-AL-TRXLPELCJ-15KV Phases= 1  Length=128.500000 units=m
New Line.263514992 Bus1=260745382.1.2.3 Bus2=263514994.1.2.3 LineCode=1/0-AL-HMWPECN-15KV Phases= 3  Length=1.530000 units=m
New Line.260972094 Bus1=260972095.2 Bus2=260972096.2 LineCode=1/0-AL-TRXLPELCJ-15KV Phases= 1  Length=91.070000 units=m
