03_OpenDSS_Circuits/ERaleigh_Circuit_Opendss/LinesByPhase.DSS
New Line.PGT38_GS80BK_2852954 Phases= 3  Bus1=1992591.1.2.3 Bus2=1992588.1.2.3 Length=3.962400 units=m Spacing=PEC_PEC_12KV_HORZ_3P wires=[PEC_477KCMIL_AAC PEC_477KCMIL_AAC PEC_477KCMIL_AAC PEC_#1/0AWG_ACSR ]
New Line.HV15BK_HV17BK_2852967 Phases= 3  Bus1=1992510.1.2.3 Bus2=1992509.1.2.3 Length=20.421600 units=m Spacing=PEC_PEC_12KV_TRIA_3P wires=[PEC_477KCMIL_AAC PEC_477KCMIL_AAC PEC_477KCMIL_AAC PEC_#1/0AWG_ACSR ]
New Line.GS80BK_GS83BK_2852955 Phases= 3  Bus1=1992589.1.2.3 Bus2=1765896.1.2.3 Length=39.928800 units=m Spacing=PEC_PEC_12KV_TRIA_3P wires=[PEC_#2AWG_ACSR PEC_#2AWG_ACSR PEC_#2AWG_ACSR PEC_#2AWG_ACSR ]
New Line.HV16BK_REC47_2852948 Phases= 3  Bus1=1765890.1.2.3 Bus2=1992511.1.2.3 Length=44.500800 units=m Spacing=PEC_PEC_12KV_TRIA_3P wires=[PEC_477KCMIL_AAC PEC_477KCMIL_AAC PEC_477KCMIL_AAC PEC_#1/0AWG_ACSR ]
New Line.GS68BK_GS71BK_2852950 Phases= 3  Bus1=1992493.1.2.3 Bus2=1992508.1.2.3 Length=33.528000 units=m Spacing=PEC_PEC_12KV_TRIA_3P wires=[PEC_477KCMIL_AAC PEC_477KCMIL_AAC PEC_477KCMIL_AAC PEC_#1/0AWG_ACSR ]
New Line.REA79_REA81_2836501 Phases= 3  Bus1=26595446.1.2.3 Bus2=1823869.1.2.3 Length=32.004000 units=m Spacing=PEC_PEC_12KV_HORZ_3P wires=[PEC_477KCMIL_AAC PEC_477KCMIL_AAC PEC_477KCMIL_AAC PEC_1/0_ACSR ]
New Line.0360BK_RDZ75_2836526 Phases= 3  Bus1=1823860.1.2.3 Bus2=1823866.1.2.3 Length=33.528000 units=m Spacing=PEC_PEC_12KV_TRIA_3P wires=[PEC_477KCMIL_AAC PEC_477KCMIL_AAC PEC_477KCMIL_AAC PEC_#1/0AWG_ACSR ]
New Line.PGT38_GS90BK_2852957 Phases= 3  Bus1=1992591.1.2.3 Bus2=1992558.1.2.3 Length=37.185600 units=m Spacing=PEC_PEC_12KV_TRIA_3P wires=[PEC_477KCMIL_AAC PEC_477KCMIL_AAC PEC_477KCMIL_AAC PEC_#1/0AWG_ACSR ]
New Line.C604BK_REA84_2836504 Phases= 3  Bus1=1823814.1.2.3 Bus2=1823812.1.2.3 Length=13.716000 units=m Spacing=PEC_PEC_12KV_HORZ_3P wires=[PEC_477KCMIL_AAC PEC_477KCMIL_AAC PEC_477KCMIL_AAC PEC_1/0_ACSR ]
New Line.REA51_REA52_2836512 Phases= 3  Bus1=1823849.1.2.3 Bus2=1823819.1.2.3 Length=17.983200 units=m Spacing=PEC_PEC_12KV_TRIA_3P wires=[PEC_477KCMIL_AAC PEC_477KCMIL_AAC PEC_477KCMIL_AAC PEC_#1/0AWG_ACSR ]
New Line.GS71BK_GS76BK_2852951 Phases= 3  Bus1=1992508.1.2.3 Bus2=1992507.1.2.3 Length=36.576000 units=m Spacing=PEC_PEC_12KV_TRIA_3P wires=[PEC_477KCMIL_AAC PEC_477KCMIL_AAC PEC_477KCMIL_AAC PEC_#1/0AWG_ACSR ]
New Line.REA84_RDZ72_2836505 Phases= 3  Bus1=1823812.1.2.3 Bus2=1823811.1.2.3 Length=19.202400 units=m Spacing=PEC_PEC_12KV_VERT_3P wires=[PEC_477KCMIL_AAC PEC_477KCMIL_AAC PEC_477KCMIL_AAC PEC_1/0_ACSR ]
New Line.GS79BK_PGT38_2852953 Phases= 3  Bus1=1992593.1.2.3 Bus2=1992591.1.2.3 Length=22.555200 units=m Spacing=PEC_TRIANGULAR wires=[PEC_477KCMIL_AAC PEC_477KCMIL_AAC PEC_477KCMIL_AAC PEC_#1/0AWG_ACSR ]
New Line.GT16BK_GT17BK_2893175 Phases= 1  Bus1=26621405.1 Bus2=26621406.1 Length=22.555200 units=m Spacing=PEC_PEC_12KV_TRIA_1P wires=[PEC_#1/0AWG_AAC PEC_#1/0AWG_AAC ]
New Line.RDZ99_REA50_2836510 Phases= 3  Bus1=1823817.1.2.3 Bus2=1823816.1.2.3 Length=19.202400 units=m Spacing=PEC_PEC_12KV_HORZ_3P wires=[PEC_477KCMIL_AAC PEC_477KCMIL_AAC PEC_477KCMIL_AAC PEC_#1/0AWG_ACSR ]
New Line.RDZ92_RDZ92_2880866 Phases= 3  Bus1=25945740.1.2.3 Bus2=T5120B01_10000013.1.2.3 Length=13.716000 units=m Spacing=PEC_PEC_12KV_HORZ_3P wires=[PEC_477KCMIL_AAC PEC_477KCMIL_AAC PEC_477KCMIL_AAC PEC_1/0_ACSR ]
New Line.GS76BK_GS79BK_2852952 Phases= 3  Bus1=1992507.1.2.3 Bus2=1992593.1.2.3 Length=12.192000 units=m Spacing=PEC_PEC_12KV_TRIA_3P wires=[PEC_477KCMIL_AAC PEC_477KCMIL_AAC PEC_477KCMIL_AAC PEC_#1/0AWG_ACSR ]
New Line.RDZ75_RE585_2836507 Phases= 3  Bus1=1823866.1.2.3 Bus2=1823868.1.2.3 Length=24.079200 units=m Spacing=PEC_PEC_12KV_HORZ_3P wires=[PEC_477KCMIL_AAC PEC_477KCMIL_AAC PEC_477KCMIL_AAC PEC_#1/0AWG_ACSR ]
New Line.C603BK_C604BK_2836503 Phases= 3  Bus1=1823815.1.2.3 Bus2=1823814.1.2.3 Length=20.421600 units=m Spacing=PEC_PEC_12KV_HORZ_3P wires=[PEC_477KCMIL_AAC PEC_477KCMIL_AAC PEC_477KCMIL_AAC PEC_1/0_ACSR ]
New Line.GT18BK_GT16BK_2893174 Phases= 1  Bus1=1992535.1 Bus2=26621405.1 Length=17.678400 units=m Spacing=PEC_PEC_12KV_TRIA_1P wires=[PEC_#1/0AWG_AAC PEC_#1/0AWG_AAC ]
New Line.RDZ95_RDZ96_2836508 Phases= 3  Bus1=1823850.1.2.3 Bus2=1823818.1.2.3 Length=43.586400 units=m Spacing=PEC_PEC_12KV_HORZ_3P wires=[PEC_477KCMIL_AAC PEC_477KCMIL_AAC PEC_477KCMIL_AAC PEC_#1/0AWG_ACSR ]
New Line.RE585_RDZ93_2885299 Phases= 3  Bus1=1823868.1.2.3 Bus2=25945740.1.2.3 Length=9.448800 units=m Spacing=PEC_PEC_12KV_HORZ_3P wires=[PEC_477KCMIL_AAC PEC_477KCMIL_AAC PEC_477KCMIL_AAC PEC_1/0_ACSR ]
New Line.RDZ95_RE585_2836547 Phases= 3  Bus1=1823868.1.2.3 Bus2=1823850.1.2.3 Length=11.887200 units=m Spacing=PEC_PEC_12KV_HORZ_3P wires=[PEC_477KCMIL_AAC PEC_477KCMIL_AAC PEC_477KCMIL_AAC PEC_#1/0AWG_ACSR ]
New Line.GS90BK_GS93BK_2852958 Phases= 3  Bus1=1992558.1.2.3 Bus2=1992553.1.2.3 Length=47.853600 units=m Spacing=PEC_PEC_12KV_TRIA_3P wires=[PEC_477KCMIL_AAC PEC_477KCMIL_AAC PEC_477KCMIL_AAC PEC_#1/0AWG_ACSR ]
New Line.REC47_REC48_2836514 Phases= 1  Bus1=25113875.2 Bus2=1823847.2 Length=30.175200 units=m Spacing=PEC_PEC_12KV_TRIA_1P wires=[PEC_#1/0AWG_AAC PEC_#1/0AWG_AAC ]
New Line.RDZ73_0360BK_2836521 Phases= 3  Bus1=1823813.1.2.3 Bus2=1823860.1.2.3 Length=26.517600 units=m Spacing=PEC_PEC_12KV_TRIA_3P wires=[PEC_477KCMIL_AAC PEC_477KCMIL_AAC PEC_477KCMIL_AAC PEC_#1/0AWG_ACSR ]
New Line.RDZ96_RDZ99_2836509 Phases= 3  Bus1=1823818.1.2.3 Bus2=1823817.1.2.3 Length=30.784800 units=m Spacing=PEC_PEC_12KV_HORZ_3P wires=[PEC_477KCMIL_AAC PEC_477KCMIL_AAC PEC_477KCMIL_AAC PEC_#1/0AWG_ACSR ]
New Line.GS93BK_GT31BK_2852959 Phases= 3  Bus1=1992553.1.2.3 Bus2=1992550.1.2.3 Length=28.956000 units=m Spacing=PEC_PEC_12KV_TRIA_3P wires=[PEC_477KCMIL_AAC PEC_477KCMIL_AAC PEC_477KCMIL_AAC PEC_#1/0AWG_ACSR ]
New Line.GS89BK_GS89BK_2852956 Phases= 3  Bus1=1992591.1.2.3 Bus2=T5120B01_10000012.1.2.3 Length=4.572000 units=m Spacing=PEC_PEC_12KV_HORZ_3P wires=[PEC_477KCMIL_AAC PEC_477KCMIL_AAC PEC_477KCMIL_AAC PEC_#1/0AWG_ACSR ]
New Line.HV17BK_GS68BK_2852968 Phases= 3  Bus1=1992509.1.2.3 Bus2=1992493.1.2.3 Length=39.319200 units=m Spacing=PEC_PEC_12KV_TRIA_3P wires=[PEC_477KCMIL_AAC PEC_477KCMIL_AAC PEC_477KCMIL_AAC PEC_#1/0AWG_ACSR ]
New Line.REA81_C603BK_2836502 Phases= 3  Bus1=1823869.1.2.3 Bus2=1823815.1.2.3 Length=28.041600 units=m Spacing=PEC_PEC_12KV_HORZ_3P wires=[PEC_477KCMIL_AAC PEC_477KCMIL_AAC PEC_477KCMIL_AAC PEC_1/0_ACSR ]
New Line.REA50_REA51_2836511 Phases= 3  Bus1=1823816.1.2.3 Bus2=1823849.1.2.3 Length=13.106400 units=m Spacing=PEC_PEC_12KV_TRIA_3P wires=[PEC_477KCMIL_AAC PEC_477KCMIL_AAC PEC_477KCMIL_AAC PEC_#1/0AWG_ACSR ]
New Line.REC48_REC46_2836515 Phases= 1  Bus1=1823847.2 Bus2=1823824.2 Length=42.062400 units=m Spacing=PEC_PEC_12KV_TRIA_1P wires=[PEC_#1/0AWG_ACSR PEC_#1/0AWG_ACSR ]
New Line.REA52_REC47_2836513 Phases= 3  Bus1=1823819.1.2.3 Bus2=1765890.1.2.3 Length=31.394400 units=m Spacing=PEC_PEC_12KV_TRIA_3P wires=[PEC_477KCMIL_AAC PEC_477KCMIL_AAC PEC_477KCMIL_AAC PEC_#1/0AWG_ACSR ]
New Line.GT31BK_GT28BK_2852960 Phases= 3  Bus1=1992550.1.2.3 Bus2=GT28BK_103013451.1.2.3 Length=26.822400 units=m Spacing=PEC_PEC_12KV_TRIA_3P wires=[PEC_477KCMIL_AAC PEC_477KCMIL_AAC PEC_477KCMIL_AAC PEC_#1/0AWG_ACSR ]
New Line.GT20BK_GT18BK_2852962 Phases= 3  Bus1=1992539.1.2.3 Bus2=1992535.1.2.3 Length=14.020800 units=m Spacing=PEC_PEC_12KV_HORZ_3P wires=[PEC_477KCMIL_AAC PEC_477KCMIL_AAC PEC_477KCMIL_AAC PEC_#1/0AWG_ACSR ]
New Line.HV16BK_HV15BK_2852949 Phases= 3  Bus1=1992511.1.2.3 Bus2=1992510.1.2.3 Length=20.116800 units=m Spacing=PEC_PEC_12KV_HORZ_3P wires=[PEC_477KCMIL_AAC PEC_477KCMIL_AAC PEC_477KCMIL_AAC PEC_#1/0AWG_ACSR ]
New Line.GT28BK_GT20BK_2852961 Phases= 3  Bus1=GT28BK_103013451.1.2.3 Bus2=1992539.1.2.3 Length=34.747200 units=m Spacing=PEC_PEC_12KV_TRIA_3P wires=[PEC_477KCMIL_AAC PEC_477KCMIL_AAC PEC_477KCMIL_AAC PEC_#1/0AWG_ACSR ]
New Line.RDZ72_RDZ73_2836506 Phases= 3  Bus1=1823811.1.2.3 Bus2=1823813.1.2.3 Length=6.705600 units=m Spacing=PEC_PEC_12KV_VERT_3P wires=[PEC_477KCMIL_AAC PEC_477KCMIL_AAC PEC_477KCMIL_AAC PEC_#1/0AWG_ACSR ]
