03_OpenDSS_Circuits/ERaleigh_Circuit_Opendss/Loads.DSS
New Load.263514994_1 Phases= 1  Bus1=263514994.1 kV= 7.19976905311778  XFKVA=75.000000 PF= 0.973355761650713  kWh=24.320000 NumCust=1.000000 ! KW= 18.138019 
New Load.263514994_2 Phases= 1  Bus1=263514994.2 kV= 7.19976905311778  XFKVA=75.000000 PF= 0.967996898165801  kWh=24.320000 NumCust=0.000000 ! KW= 13.444529 
New Load.263514994_3 Phases= 1  Bus1=263514994.3 kV= 7.19976905311778  XFKVA=75.000000 PF= 0.975871490412345  kWh=24.320000 NumCust=0.000000 ! KW= 17.327622 
New Load.260972100_2 Phases= 1  Bus1=260972100.2 kV= 7.19976905311778  XFKVA=100.000000 PF= 0.967996898165801  kWh=72.000000 NumCust=7.000000 ! KW= 17.926039 
New Load.261002726_2 Phases= 1  Bus1=261002726.2 kV= 7.19976905311778  XFKVA=50.000000 PF= 0.967996898165801  kWh=89.000000 NumCust=10.000000 ! KW= 8.96302 
New Load.259005026_2 Phases= 1  Bus1=259005026.2 kV= 7.19976905311778  XFKVA=10.000000 PF= 0.967996898165801  kWh=18.000000 NumCust=1.000000 ! KW= 1.792604 
New Load.260784285_3 Phases= 1  Bus1=260784285.3 kV= 7.19976905311778  XFKVA=50.000000 PF= 0.975871490412345  kWh=65.000000 NumCust=10.000000 ! KW= 11.551748 
New Load.260784280_3 Phases= 1  Bus1=260784280.3 kV= 7.19976905311778  XFKVA=50.000000 PF= 0.975871490412345  kWh=79.000000 NumCust=9.000000 ! KW= 11.551748 
New Load.260972111_3 Phases= 1  Bus1=260972111.3 kV= 7.19976905311778  XFKVA=100.000000 PF= 0.975871490412345  kWh=83.000000 NumCust=8.000000 ! KW= 23.103496 
New Load.261002705_2 Phases= 1  Bus1=261002705.2 kV= 7.19976905311778  XFKVA=50.000000 PF= 0.967996898165801  kWh=60.000000 NumCust=6.000000 ! KW= 8.96302 
New Load.258850750_1 Phases= 1  Bus1=258850750.1 kV= 7.19976905311778  XFKVA=75.000000 PF= 0.973355761650713  NumCust=0.000000 ! KW= 18.138019 
New Load.258850750_2 Phases= 1  Bus1=258850750.2 kV= 7.19976905311778  XFKVA=75.000000 PF= 0.967996898165801  NumCust=0.000000 ! KW= 13.444529 
New Load.258850750_3 Phases= 1  Bus1=258850750.3 kV= 7.19976905311778  XFKVA=75.000000 PF= 0.975871490412345  NumCust=0.000000 ! KW= 17.327622 
New Load.258840489_3 Phases= 1  Bus1=258840489.3 kV= 7.19976905311778  XFKVA=50.000000 PF= 0.975871490412345  kWh=19.000000 NumCust=4.000000 ! KW= 11.551748 
New Load.260972116_3 Phases= 1  Bus1=260972116.3 kV= 7.19976905311778  XFKVA=100.000000 PF= 0.975871490412345  kWh=104.000000 NumCust=9.000000 ! KW= 23.103496 
New Load.261031159_1 Phases= 1  Bus1=261031159.1 kV= 7.19976905311778  XFKVA=75.000000 PF= 0.973355761650713  kWh=62.000000 NumCust=6.000000 ! KW= 18.138019 
New Load.260784305_3 Phases= 1  Bus1=260784305.3 kV= 7.19976905311778  XFKVA=50.000000 PF= 0.975871490412345  kWh=76.000000 NumCust=12.000000 ! KW= 11.551748 
New Load.460932367_1 Phases= 1  Bus1=460932367.1 kV= 7.19976905311778  XFKVA=50.000000 PF= 0.973355761650713  NumCust=0.000000 ! KW= 12.092012 
New Load.460932367_2 Phases= 1  Bus1=460932367.2 kV= 7.19976905311778  XFKVA=50.000000 PF= 0.967996898165801  NumCust=0.000000 ! KW= 8.96302 
New Load.460932367_3 Phases= 1  Bus1=460932367.3 kV= 7.19976905311778  XFKVA=50.000000 PF= 0.975871490412345  NumCust=0.000000 ! KW= 11.551748 
New Load.259005009_1 Phases= 1  Bus1=259005009.1 kV= 7.19976905311778  XFKVA=15.000000 PF= 0.973355761650713  kWh=27.000000 NumCust=3.000000 ! KW= 3.627604 
New Load.261085132_1 Phases= 1  Bus1=261085132.1 kV= 7.19976905311778  XFKVA=50.000000 PF= 0.973355761650713  kWh=140.000000 NumCust=9.000000 ! KW= 12.092012 
New Load.260784300_3 Phases= 1  Bus1=260784300.3 kV= 7.19976905311778  XFKVA=50.000000 PF= 0.975871490412345  kWh=75.000000 NumCust=11.000000 ! KW= 11.551748 
New Load.258840546_3 Phases= 1  Bus1=258840546.3 kV= 7.19976905311778  XFKVA=25.000000 PF= 0.975871490412345  NumCust=1.000000 ! KW= 5.775874 
New Load.259005099_3 Phases= 1  Bus1=259005099.3 kV= 7.19976905311778  XFKVA=25.000000 PF= 0.975871490412345  kWh=18.000000 NumCust=1.000000 ! KW= 5.775874 
New Load.263730561_1 Phases= 1  Bus1=263730561.1 kV= 7.19976905311778  XFKVA=50.000000 PF= 0.973355761650713  kWh=87.000000 NumCust=9.000000 ! KW= 12.092012 
New Load.469800067_1 Phases= 1  Bus1=469800067.1 kV= 7.19976905311778  XFKVA=166.700000 PF= 0.973355761650713  NumCust=0.000000 ! KW= 0 
New Load.469800067_2 Phases= 1  Bus1=469800067.2 kV= 7.19976905311778  XFKVA=166.700000 PF= 0.967996898165801  NumCust=0.000000 ! KW= 0 
New Load.469800067_3 Phases= 1  Bus1=469800067.3 kV= 7.19976905311778  XFKVA=166.700000 PF= 0.975871490412345  NumCust=0.000000 ! KW= 0 
New Load.261085128_1 Phases= 1  Bus1=261085128.1 kV= 7.19976905311778  XFKVA=50.000000 PF= 0.973355761650713  kWh=148.000000 NumCust=10.000000 ! KW= 12.092012 
New Load.260745472_3 Phases= 1  Bus1=260745472.3 kV= 7.19976905311778  XFKVA=75.000000 PF= 0.975871490412345  kWh=42.000000 NumCust=5.000000 ! KW= 17.327622 
New Load.460932291_2 Phases= 1  Bus1=460932291.2 kV= 7.19976905311778  XFKVA=50.000000 PF= 0.967996898165801  kWh=79.000000 NumCust=7.000000 ! KW= 8.96302 
New Load.260745432_2 Phases= 1  Bus1=260745432.2 kV= 7.19976905311778  XFKVA=75.000000 PF= 0.967996898165801  kWh=62.000000 NumCust=6.000000 ! KW= 13.444529 
New Load.263511745_3 Phases= 1  Bus1=263511745.3 kV= 7.19976905311778  XFKVA=10.000000 PF= 0.975871490412345  kWh=1.000000 NumCust=2.000000 ! KW= 2.31035 
New Load.263730579_2 Phases= 1  Bus1=263730579.2 kV= 7.19976905311778  XFKVA=50.000000 PF= 0.967996898165801  kWh=103.000000 NumCust=9.000000 ! KW= 8.96302 
New Load.263701639_2 Phases= 1  Bus1=263701639.2 kV= 7.19976905311778  XFKVA=50.000000 PF= 0.967996898165801  kWh=56.000000 NumCust=5.000000 ! KW= 8.96302 
New Load.263511718_1 Phases= 1  Bus1=263511718.1 kV= 7.19976905311778  XFKVA=50.000000 PF= 0.973355761650713  kWh=9.067000 NumCust=2.000000 ! KW= 12.092012 
New Load.263511718_2 Phases= 1  Bus1=263511718.2 kV= 7.19976905311778  XFKVA=50.000000 PF= 0.967996898165801  kWh=9.067000 NumCust=0.000000 ! KW= 8.96302 
New Load.263511718_3 Phases= 1  Bus1=263511718.3 kV= 7.19976905311778  XFKVA=50.000000 PF= 0.975871490412345  kWh=9.067000 NumCust=0.000000 ! KW= 11.551748 
New Load.259004985_3 Phases= 1  Bus1=259004985.3 kV= 7.19976905311778  XFKVA=50.000000 PF= 0.975871490412345  kWh=3.000000 NumCust=1.000000 ! KW= 11.551748 
New Load.263701621_3 Phases= 1  Bus1=263701621.3 kV= 7.19976905311778  XFKVA=50.000000 PF= 0.975871490412345  kWh=57.000000 NumCust=5.000000 ! KW= 11.551748 
New Load.258850660_2 Phases= 1  Bus1=258850660.2 kV= 7.19976905311778  XFKVA=10.000000 PF= 0.967996898165801  NumCust=0.000000 ! KW= 1.792604 
New Load.258840462_1 Phases= 1  Bus1=258840462.1 kV= 7.19976905311778  XFKVA=25.000000 PF= 0.973355761650713  kWh=9.267000 NumCust=1.000000 ! KW= 6.046006 
New Load.258840462_2 Phases= 1  Bus1=258840462.2 kV= 7.19976905311778  XFKVA=25.000000 PF= 0.967996898165801  kWh=9.267000 NumCust=0.000000 ! KW= 4.48151 
New Load.258840462_3 Phases= 1  Bus1=258840462.3 kV= 7.19976905311778  XFKVA=25.000000 PF= 0.975871490412345  kWh=9.267000 NumCust=0.000000 ! KW= 5.775874 
New Load.258839871_2 Phases= 1  Bus1=258839871.2 kV= 7.19976905311778  XFKVA=15.000000 PF= 0.967996898165801  NumCust=0.000000 ! KW= 2.688906 
New Load.258850618_3 Phases= 1  Bus1=258850618.3 kV= 7.19976905311778  XFKVA=25.000000 PF= 0.975871490412345  NumCust=0.000000 ! KW= 5.775874 
New Load.263701603_2 Phases= 1  Bus1=263701603.2 kV= 7.19976905311778  XFKVA=50.000000 PF= 0.967996898165801  kWh=23.000000 NumCust=2.000000 ! KW= 8.96302 
New Load.263565077_3 Phases= 1  Bus1=263565077.3 kV= 7.19976905311778  XFKVA=75.000000 PF= 0.975871490412345  kWh=93.000000 NumCust=9.000000 ! KW= 17.327622 
New Load.264494246_3 Phases= 1  Bus1=264494246.3 kV= 7.19976905311778  XFKVA=25.000000 PF= 0.975871490412345  NumCust=0.000000 ! KW= 5.775874 
New Load.258850638_3 Phases= 1  Bus1=258850638.3 kV= 7.19976905311778  XFKVA=25.000000 PF= 0.975871490412345  NumCust=0.000000 ! KW= 5.775874 
New Load.258850765_1 Phases= 1  Bus1=258850765.1 kV= 7.19976905311778  XFKVA=50.000000 PF= 0.973355761650713  kWh=39.830000 NumCust=3.000000 ! KW= 12.092012 
New Load.258850765_2 Phases= 1  Bus1=258850765.2 kV= 7.19976905311778  XFKVA=50.000000 PF= 0.967996898165801  kWh=39.830000 NumCust=0.000000 ! KW= 8.96302 
New Load.258850765_3 Phases= 1  Bus1=258850765.3 kV= 7.19976905311778  XFKVA=50.000000 PF= 0.975871490412345  kWh=39.830000 NumCust=0.000000 ! KW= 11.551748 
New Load.260745311_1 Phases= 1  Bus1=260745311.1 kV= 7.19976905311778  XFKVA=250.000000 PF= 0.973355761650713  kWh=90.240000 NumCust=1.000000 ! KW= 90.24 
New Load.260745311_2 Phases= 1  Bus1=260745311.2 kV= 7.19976905311778  XFKVA=250.000000 PF= 0.967996898165801  kWh=90.240000 NumCust=0.000000 ! KW= 90.24 
New Load.260745311_3 Phases= 1  Bus1=260745311.3 kV= 7.19976905311778  XFKVA=250.000000 PF= 0.975871490412345  kWh=90.240000 NumCust=0.000000 ! KW= 90.24 
New Load.258839854_2 Phases= 1  Bus1=258839854.2 kV= 7.19976905311778  XFKVA=25.000000 PF= 0.967996898165801  kWh=5.000000 NumCust=3.000000 ! KW= 4.48151 
New Load.263565086_1 Phases= 1  Bus1=263565086.1 kV= 7.19976905311778  XFKVA=75.000000 PF= 0.973355761650713  kWh=5.760000 NumCust=1.000000 ! KW= 18.138019 
New Load.263565086_2 Phases= 1  Bus1=263565086.2 kV= 7.19976905311778  XFKVA=75.000000 PF= 0.967996898165801  kWh=5.760000 NumCust=0.000000 ! KW= 13.444529 
New Load.263565086_3 Phases= 1  Bus1=263565086.3 kV= 7.19976905311778  XFKVA=75.000000 PF= 0.975871490412345  kWh=5.760000 NumCust=0.000000 ! KW= 17.327622 
New Load.258839840_3 Phases= 1  Bus1=258839840.3 kV= 7.19976905311778  XFKVA=10.000000 PF= 0.975871490412345  kWh=16.350000 NumCust=0.000000 ! KW= 2.31035 
New Load.258839840_1 Phases= 1  Bus1=258839840.1 kV= 7.19976905311778  XFKVA=10.000000 PF= 0.973355761650713  kWh=16.350000 NumCust=4.000000 ! KW= 2.418402 
New Load.258839840_2 Phases= 1  Bus1=258839840.2 kV= 7.19976905311778  XFKVA=10.000000 PF= 0.967996898165801  kWh=16.350000 NumCust=0.000000 ! KW= 1.792604 
New Load.258840257_3 Phases= 1  Bus1=258840257.3 kV= 7.19976905311778  XFKVA=10.000000 PF= 0.975871490412345  NumCust=1.000000 ! KW= 2.31035 
New Load.258850559_1 Phases= 1  Bus1=258850559.1 kV= 7.19976905311778  XFKVA=25.000000 PF= 0.973355761650713  NumCust=0.000000 ! KW= 6.046006 
New Load.258839948_3 Phases= 1  Bus1=258839948.3 kV= 7.19976905311778  XFKVA=10.000000 PF= 0.975871490412345  kWh=12.000000 NumCust=1.000000 ! KW= 2.31035 
New Load.258840365_1 Phases= 1  Bus1=258840365.1 kV= 7.19976905311778  XFKVA=25.000000 PF= 0.973355761650713  NumCust=1.000000 ! KW= 6.046006 
New Load.258840365_2 Phases= 1  Bus1=258840365.2 kV= 7.19976905311778  XFKVA=25.000000 PF= 0.967996898165801  NumCust=0.000000 ! KW= 4.48151 
New Load.258840365_3 Phases= 1  Bus1=258840365.3 kV= 7.19976905311778  XFKVA=25.000000 PF= 0.975871490412345  NumCust=0.000000 ! KW= 5.775874 
New Load.258851452_1 Phases= 1  Bus1=258851452.1 kV= 7.19976905311778  XFKVA=100.000000 PF= 0.973355761650713  kWh=56.000000 NumCust=1.000000 ! KW= 56 
New Load.258851452_2 Phases= 1  Bus1=258851452.2 kV= 7.19976905311778  XFKVA=100.000000 PF= 0.967996898165801  kWh=56.000000 NumCust=0.000000 ! KW= 56 
New Load.258851452_3 Phases= 1  Bus1=258851452.3 kV= 7.19976905311778  XFKVA=100.000000 PF= 0.975871490412345  kWh=56.000000 NumCust=0.000000 ! KW= 56 
New Load.258840242_1 Phases= 1  Bus1=258840242.1 kV= 7.19976905311778  XFKVA=25.000000 PF= 0.973355761650713  kWh=17.200000 NumCust=1.000000 ! KW= 6.046006 
New Load.258840425_3 Phases= 1  Bus1=258840425.3 kV= 7.19976905311778  XFKVA=25.000000 PF= 0.975871490412345  kWh=48.000000 NumCust=6.000000 ! KW= 5.775874 
New Load.264494199_1 Phases= 1  Bus1=264494199.1 kV= 7.19976905311778  XFKVA=25.000000 PF= 0.973355761650713  kWh=5.333000 NumCust=1.000000 ! KW= 6.046006 
New Load.264494199_2 Phases= 1  Bus1=264494199.2 kV= 7.19976905311778  XFKVA=25.000000 PF= 0.967996898165801  kWh=5.333000 NumCust=0.000000 ! KW= 4.48151 
New Load.264494199_3 Phases= 1  Bus1=264494199.3 kV= 7.19976905311778  XFKVA=25.000000 PF= 0.975871490412345  kWh=5.333000 NumCust=0.000000 ! KW= 5.775874 
New Load.258850544_1 Phases= 1  Bus1=258850544.1 kV= 7.19976905311778  XFKVA=50.000000 PF= 0.973355761650713  NumCust=0.000000 ! KW= 12.092012 
New Load.258850544_2 Phases= 1  Bus1=258850544.2 kV= 7.19976905311778  XFKVA=50.000000 PF= 0.967996898165801  NumCust=0.000000 ! KW= 8.96302 
New Load.258850544_3 Phases= 1  Bus1=258850544.3 kV= 7.19976905311778  XFKVA=50.000000 PF= 0.975871490412345  NumCust=0.000000 ! KW= 11.551748 
New Load.258850537_1 Phases= 1  Bus1=258850537.1 kV= 7.19976905311778  XFKVA=10.000000 PF= 0.973355761650713  kWh=0.300000 NumCust=1.000000 ! KW= 2.418402 
New Load.258850537_2 Phases= 1  Bus1=258850537.2 kV= 7.19976905311778  XFKVA=10.000000 PF= 0.967996898165801  kWh=0.300000 NumCust=0.000000 ! KW= 1.792604 
New Load.258850537_3 Phases= 1  Bus1=258850537.3 kV= 7.19976905311778  XFKVA=10.000000 PF= 0.975871490412345  kWh=0.300000 NumCust=0.000000 ! KW= 2.31035 
New Load.258850725_2 Phases= 1  Bus1=258850725.2 kV= 7.19976905311778  XFKVA=10.000000 PF= 0.967996898165801  NumCust=0.000000 ! KW= 1.792604 
New Load.258840479_3 Phases= 1  Bus1=258840479.3 kV= 7.19976905311778  XFKVA=25.000000 PF= 0.975871490412345  NumCust=0.000000 ! KW= 5.775874 
New Load.258840398_3 Phases= 1  Bus1=258840398.3 kV= 7.19976905311778  XFKVA=50.000000 PF= 0.975871490412345  kWh=95.000000 NumCust=9.000000 ! KW= 11.551748 
New Load.258851437_2 Phases= 1  Bus1=258851437.2 kV= 7.19976905311778  XFKVA=25.000000 PF= 0.967996898165801  kWh=25.000000 NumCust=2.000000 ! KW= 4.48151 
New Load.263714477_1 Phases= 1  Bus1=263714477.1 kV= 7.19976905311778  XFKVA=15.000000 PF= 0.973355761650713  NumCust=0.000000 ! KW= 3.627604 
New Load.258839911_1 Phases= 1  Bus1=258839911.1 kV= 7.19976905311778  XFKVA=25.000000 PF= 0.973355761650713  kWh=9.267000 NumCust=2.000000 ! KW= 6.046006 
New Load.258839911_2 Phases= 1  Bus1=258839911.2 kV= 7.19976905311778  XFKVA=25.000000 PF= 0.967996898165801  kWh=9.267000 NumCust=0.000000 ! KW= 4.48151 
New Load.258839911_3 Phases= 1  Bus1=258839911.3 kV= 7.19976905311778  XFKVA=25.000000 PF= 0.975871490412345  kWh=9.267000 NumCust=0.000000 ! KW= 5.775874 
New Load.258840164_1 Phases= 1  Bus1=258840164.1 kV= 7.19976905311778  XFKVA=25.000000 PF= 0.973355761650713  kWh=4.533000 NumCust=1.000000 ! KW= 6.046006 
New Load.258840164_2 Phases= 1  Bus1=258840164.2 kV= 7.19976905311778  XFKVA=25.000000 PF= 0.967996898165801  kWh=4.533000 NumCust=0.000000 ! KW= 4.48151 
New Load.258840164_3 Phases= 1  Bus1=258840164.3 kV= 7.19976905311778  XFKVA=25.000000 PF= 0.975871490412345  kWh=4.533000 NumCust=0.000000 ! KW= 5.775874 
New Load.263515057_2 Phases= 1  Bus1=263515057.2 kV= 7.19976905311778  XFKVA=75.000000 PF= 0.967996898165801  kWh=60.000000 NumCust=6.000000 ! KW= 13.444529 
New Load.466987565_1 Phases= 1  Bus1=466987565.1 kV= 7.19976905311778  XFKVA=50.000000 PF= 0.973355761650713  kWh=5.120000 NumCust=1.000000 ! KW= 12.092012 
New Load.466987565_2 Phases= 1  Bus1=466987565.2 kV= 7.19976905311778  XFKVA=50.000000 PF= 0.967996898165801  kWh=5.120000 NumCust=0.000000 ! KW= 8.96302 
New Load.466987565_3 Phases= 1  Bus1=466987565.3 kV= 7.19976905311778  XFKVA=50.000000 PF= 0.975871490412345  kWh=5.120000 NumCust=0.000000 ! KW= 11.551748 
New Load.263515066_3 Phases= 1  Bus1=263515066.3 kV= 7.19976905311778  XFKVA=75.000000 PF= 0.975871490412345  kWh=57.000000 NumCust=6.000000 ! KW= 17.327622 
New Load.258851360_1 Phases= 1  Bus1=258851360.1 kV= 7.19976905311778  XFKVA=50.000000 PF= 0.973355761650713  kWh=83.000000 NumCust=7.000000 ! KW= 12.092012 
New Load.258851417_1 Phases= 1  Bus1=258851417.1 kV= 7.19976905311778  XFKVA=25.000000 PF= 0.973355761650713  kWh=55.000000 NumCust=6.000000 ! KW= 6.046006 
New Load.258840142_1 Phases= 1  Bus1=258840142.1 kV= 7.19976905311778  XFKVA=166.700000 PF= 0.973355761650713  NumCust=0.000000 ! KW= 0 
New Load.258840142_2 Phases= 1  Bus1=258840142.2 kV= 7.19976905311778  XFKVA=166.700000 PF= 0.967996898165801  NumCust=0.000000 ! KW= 0 
New Load.258840142_3 Phases= 1  Bus1=258840142.3 kV= 7.19976905311778  XFKVA=166.700000 PF= 0.975871490412345  NumCust=0.000000 ! KW= 0 
New Load.258851237_3 Phases= 1  Bus1=258851237.3 kV= 7.19976905311778  XFKVA=25.000000 PF= 0.975871490412345  kWh=2.000000 NumCust=1.000000 ! KW= 5.775874 
New Load.264494181_1 Phases= 1  Bus1=264494181.1 kV= 7.19976905311778  XFKVA=25.000000 PF= 0.973355761650713  NumCust=0.000000 ! KW= 6.046006 
New Load.264494181_2 Phases= 1  Bus1=264494181.2 kV= 7.19976905311778  XFKVA=25.000000 PF= 0.967996898165801  NumCust=0.000000 ! KW= 4.48151 
New Load.264494181_3 Phases= 1  Bus1=264494181.3 kV= 7.19976905311778  XFKVA=25.000000 PF= 0.975871490412345  NumCust=0.000000 ! KW= 5.775874 
New Load.263515165_1 Phases= 1  Bus1=263515165.1 kV= 7.19976905311778  XFKVA=250.000000 PF= 0.973355761650713  kWh=66.670000 NumCust=1.000000 ! KW= 66.67 
New Load.263515165_2 Phases= 1  Bus1=263515165.2 kV= 7.19976905311778  XFKVA=250.000000 PF= 0.967996898165801  kWh=66.670000 NumCust=0.000000 ! KW= 66.67 
New Load.263515165_3 Phases= 1  Bus1=263515165.3 kV= 7.19976905311778  XFKVA=250.000000 PF= 0.975871490412345  kWh=66.670000 NumCust=0.000000 ! KW= 66.67 
New Load.258851343_3 Phases= 1  Bus1=258851343.3 kV= 7.19976905311778  XFKVA=25.000000 PF= 0.975871490412345  kWh=25.000000 NumCust=4.000000 ! KW= 5.775874 
New Load.258840302_2 Phases= 1  Bus1=258840302.2 kV= 7.19976905311778  XFKVA=25.000000 PF= 0.967996898165801  kWh=10.000000 NumCust=1.000000 ! KW= 4.48151 
New Load.258851402_2 Phases= 1  Bus1=258851402.2 kV= 7.19976905311778  XFKVA=50.000000 PF= 0.967996898165801  kWh=79.000000 NumCust=8.000000 ! KW= 8.96302 
New Load.258840297_2 Phases= 1  Bus1=258840297.2 kV= 7.19976905311778  XFKVA=10.000000 PF= 0.967996898165801  kWh=11.000000 NumCust=1.000000 ! KW= 1.792604 
New Load.259121514_1 Phases= 1  Bus1=259121514.1 kV= 7.19976905311778  XFKVA=15.000000 PF= 0.973355761650713  kWh=9.200000 NumCust=1.000000 ! KW= 3.627604 
New Load.259121514_2 Phases= 1  Bus1=259121514.2 kV= 7.19976905311778  XFKVA=15.000000 PF= 0.967996898165801  kWh=9.200000 NumCust=0.000000 ! KW= 2.688906 
New Load.259121514_3 Phases= 1  Bus1=259121514.3 kV= 7.19976905311778  XFKVA=15.000000 PF= 0.975871490412345  kWh=9.200000 NumCust=0.000000 ! KW= 3.465524 
New Load.258851397_2 Phases= 1  Bus1=258851397.2 kV= 7.19976905311778  XFKVA=25.000000 PF= 0.967996898165801  kWh=74.000000 NumCust=8.000000 ! KW= 4.48151 
New Load.258851476_1 Phases= 1  Bus1=258851476.1 kV= 7.19976905311778  XFKVA=25.000000 PF= 0.973355761650713  NumCust=0.000000 ! KW= 6.046006 
New Load.258851476_2 Phases= 1  Bus1=258851476.2 kV= 7.19976905311778  XFKVA=25.000000 PF= 0.967996898165801  NumCust=0.000000 ! KW= 4.48151 
New Load.258851476_3 Phases= 1  Bus1=258851476.3 kV= 7.19976905311778  XFKVA=25.000000 PF= 0.975871490412345  NumCust=0.000000 ! KW= 5.775874 
New Load.258840122_2 Phases= 1  Bus1=258840122.2 kV= 7.19976905311778  XFKVA=25.000000 PF= 0.967996898165801  kWh=22.000000 NumCust=3.000000 ! KW= 4.48151 
New Load.258840079_2 Phases= 1  Bus1=258840079.2 kV= 7.19976905311778  XFKVA=25.000000 PF= 0.967996898165801  kWh=3.000000 NumCust=2.000000 ! KW= 4.48151 
New Load.263515138_1 Phases= 1  Bus1=263515138.1 kV= 7.19976905311778  XFKVA=25.000000 PF= 0.973355761650713  kWh=24.000000 NumCust=2.000000 ! KW= 6.046006 
New Load.460932520_1 Phases= 1  Bus1=460932520.1 kV= 7.19976905311778  XFKVA=50.000000 PF= 0.973355761650713  kWh=13.000000 NumCust=1.000000 ! KW= 12.092012 
New Load.258840032_1 Phases= 1  Bus1=258840032.1 kV= 7.19976905311778  XFKVA=10.000000 PF= 0.973355761650713  kWh=2.667000 NumCust=1.000000 ! KW= 2.418402 
New Load.258840032_2 Phases= 1  Bus1=258840032.2 kV= 7.19976905311778  XFKVA=10.000000 PF= 0.967996898165801  kWh=2.667000 NumCust=0.000000 ! KW= 1.792604 
New Load.258840032_3 Phases= 1  Bus1=258840032.3 kV= 7.19976905311778  XFKVA=10.000000 PF= 0.975871490412345  kWh=2.667000 NumCust=0.000000 ! KW= 2.31035 
New Load.263815483_1 Phases= 1  Bus1=263815483.1 kV= 7.19976905311778  XFKVA=25.000000 PF= 0.973355761650713  kWh=40.000000 NumCust=3.000000 ! KW= 6.046006 
New Load.258851323_3 Phases= 1  Bus1=258851323.3 kV= 7.19976905311778  XFKVA=50.000000 PF= 0.975871490412345  kWh=78.700000 NumCust=4.000000 ! KW= 11.551748 
New Load.260745346_1 Phases= 1  Bus1=260745346.1 kV= 7.19976905311778  XFKVA=250.000000 PF= 0.973355761650713  NumCust=0.000000 ! KW= 0 
New Load.260745346_2 Phases= 1  Bus1=260745346.2 kV= 7.19976905311778  XFKVA=250.000000 PF= 0.967996898165801  NumCust=0.000000 ! KW= 0 
New Load.260745346_3 Phases= 1  Bus1=260745346.3 kV= 7.19976905311778  XFKVA=250.000000 PF= 0.975871490412345  NumCust=0.000000 ! KW= 0 
New Load.258851283_1 Phases= 1  Bus1=258851283.1 kV= 7.19976905311778  XFKVA=15.000000 PF= 0.973355761650713  NumCust=0.000000 ! KW= 3.627604 
New Load.258851202_1 Phases= 1  Bus1=258851202.1 kV= 7.19976905311778  XFKVA=10.000000 PF= 0.973355761650713  NumCust=0.000000 ! KW= 2.418402 
New Load.258851202_2 Phases= 1  Bus1=258851202.2 kV= 7.19976905311778  XFKVA=10.000000 PF= 0.967996898165801  NumCust=0.000000 ! KW= 1.792604 
New Load.258851202_3 Phases= 1  Bus1=258851202.3 kV= 7.19976905311778  XFKVA=10.000000 PF= 0.975871490412345  NumCust=0.000000 ! KW= 2.31035 
New Load.263515120_1 Phases= 1  Bus1=263515120.1 kV= 7.19976905311778  XFKVA=75.000000 PF= 0.973355761650713  kWh=46.000000 NumCust=5.000000 ! KW= 18.138019 
New Load.258851197_1 Phases= 1  Bus1=258851197.1 kV= 7.19976905311778  XFKVA=10.000000 PF= 0.973355761650713  NumCust=0.000000 ! KW= 2.418402 
New Load.258851197_2 Phases= 1  Bus1=258851197.2 kV= 7.19976905311778  XFKVA=10.000000 PF= 0.967996898165801  NumCust=0.000000 ! KW= 1.792604 
New Load.258851197_3 Phases= 1  Bus1=258851197.3 kV= 7.19976905311778  XFKVA=10.000000 PF= 0.975871490412345  NumCust=0.000000 ! KW= 2.31035 
New Load.258851278_1 Phases= 1  Bus1=258851278.1 kV= 7.19976905311778  XFKVA=25.000000 PF= 0.973355761650713  NumCust=0.000000 ! KW= 6.046006 
New Load.258851278_2 Phases= 1  Bus1=258851278.2 kV= 7.19976905311778  XFKVA=25.000000 PF= 0.967996898165801  NumCust=0.000000 ! KW= 4.48151 
New Load.258851278_3 Phases= 1  Bus1=258851278.3 kV= 7.19976905311778  XFKVA=25.000000 PF= 0.975871490412345  NumCust=0.000000 ! KW= 5.775874 
New Load.258851019_2 Phases= 1  Bus1=258851019.2 kV= 7.19976905311778  XFKVA=50.000000 PF= 0.967996898165801  kWh=66.230000 NumCust=4.000000 ! KW= 8.96302 
New Load.258851145_1 Phases= 1  Bus1=258851145.1 kV= 7.19976905311778  XFKVA=25.000000 PF= 0.973355761650713  kWh=26.000000 NumCust=3.000000 ! KW= 6.046006 
New Load.263515003_1 Phases= 1  Bus1=263515003.1 kV= 7.19976905311778  XFKVA=75.000000 PF= 0.973355761650713  kWh=47.470000 NumCust=1.000000 ! KW= 18.138019 
New Load.263515003_2 Phases= 1  Bus1=263515003.2 kV= 7.19976905311778  XFKVA=75.000000 PF= 0.967996898165801  kWh=47.470000 NumCust=0.000000 ! KW= 13.444529 
New Load.263515003_3 Phases= 1  Bus1=263515003.3 kV= 7.19976905311778  XFKVA=75.000000 PF= 0.975871490412345  kWh=47.470000 NumCust=0.000000 ! KW= 17.327622 
New Load.263515084_3 Phases= 1  Bus1=263515084.3 kV= 7.19976905311778  XFKVA=25.000000 PF= 0.975871490412345  kWh=7.000000 NumCust=1.000000 ! KW= 5.775874 
New Load.258851382_1 Phases= 1  Bus1=258851382.1 kV= 7.19976905311778  XFKVA=25.000000 PF= 0.973355761650713  kWh=32.000000 NumCust=4.000000 ! KW= 6.046006 
New Load.258851298_1 Phases= 1  Bus1=258851298.1 kV= 7.19976905311778  XFKVA=25.000000 PF= 0.973355761650713  NumCust=0.000000 ! KW= 6.046006 
New Load.258851298_2 Phases= 1  Bus1=258851298.2 kV= 7.19976905311778  XFKVA=25.000000 PF= 0.967996898165801  NumCust=0.000000 ! KW= 4.48151 
New Load.258851298_3 Phases= 1  Bus1=258851298.3 kV= 7.19976905311778  XFKVA=25.000000 PF= 0.975871490412345  NumCust=0.000000 ! KW= 5.775874 
New Load.258851377_1 Phases= 1  Bus1=258851377.1 kV= 7.19976905311778  XFKVA=25.000000 PF= 0.973355761650713  kWh=71.000000 NumCust=6.000000 ! KW= 6.046006 
New Load.258851123_3 Phases= 1  Bus1=258851123.3 kV= 7.19976905311778  XFKVA=25.000000 PF= 0.975871490412345  kWh=44.000000 NumCust=4.000000 ! KW= 5.775874 
New Load.258850999_1 Phases= 1  Bus1=258850999.1 kV= 7.19976905311778  XFKVA=50.000000 PF= 0.973355761650713  kWh=20.000000 NumCust=2.000000 ! KW= 12.092012 
New Load.258850999_2 Phases= 1  Bus1=258850999.2 kV= 7.19976905311778  XFKVA=50.000000 PF= 0.967996898165801  kWh=20.000000 NumCust=0.000000 ! KW= 8.96302 
New Load.258850999_3 Phases= 1  Bus1=258850999.3 kV= 7.19976905311778  XFKVA=50.000000 PF= 0.975871490412345  kWh=20.000000 NumCust=0.000000 ! KW= 11.551748 
New Load.258851079_2 Phases= 1  Bus1=258851079.2 kV= 7.19976905311778  XFKVA=25.000000 PF= 0.967996898165801  kWh=23.000000 NumCust=2.000000 ! KW= 4.48151 
New Load.472684459_1 Phases= 1  Bus1=472684459.1 kV= 7.19976905311778  XFKVA=50.000000 PF= 0.973355761650713  kWh=1.667000 NumCust=1.000000 ! KW= 12.092012 
New Load.472684459_2 Phases= 1  Bus1=472684459.2 kV= 7.19976905311778  XFKVA=50.000000 PF= 0.967996898165801  kWh=1.667000 NumCust=0.000000 ! KW= 8.96302 
New Load.472684459_3 Phases= 1  Bus1=472684459.3 kV= 7.19976905311778  XFKVA=50.000000 PF= 0.975871490412345  kWh=1.667000 NumCust=0.000000 ! KW= 11.551748 
New Load.259004984_2 Phases= 1  Bus1=259004984.2 kV= 7.19976905311778  XFKVA=50.000000 PF= 0.967996898165801  kWh=66.000000 NumCust=6.000000 ! KW= 8.96302 
New Load.261124294_1 Phases= 1  Bus1=261124294.1 kV= 7.19976905311778  XFKVA=250.000000 PF= 0.973355761650713  NumCust=0.000000 ! KW= 0 
New Load.261124294_2 Phases= 1  Bus1=261124294.2 kV= 7.19976905311778  XFKVA=250.000000 PF= 0.967996898165801  NumCust=0.000000 ! KW= 0 
New Load.261124294_3 Phases= 1  Bus1=261124294.3 kV= 7.19976905311778  XFKVA=250.000000 PF= 0.975871490412345  NumCust=0.000000 ! KW= 0 
New Load.263514859_1 Phases= 1  Bus1=263514859.1 kV= 7.19976905311778  XFKVA=50.000000 PF= 0.973355761650713  kWh=6.133000 NumCust=1.000000 ! KW= 12.092012 
New Load.263514859_2 Phases= 1  Bus1=263514859.2 kV= 7.19976905311778  XFKVA=50.000000 PF= 0.967996898165801  kWh=6.133000 NumCust=0.000000 ! KW= 8.96302 
New Load.263514859_3 Phases= 1  Bus1=263514859.3 kV= 7.19976905311778  XFKVA=50.000000 PF= 0.975871490412345  kWh=6.133000 NumCust=0.000000 ! KW= 11.551748 
New Load.258851103_2 Phases= 1  Bus1=258851103.2 kV= 7.19976905311778  XFKVA=25.000000 PF= 0.967996898165801  kWh=37.000000 NumCust=4.000000 ! KW= 4.48151 
New Load.258851180_1 Phases= 1  Bus1=258851180.1 kV= 7.19976905311778  XFKVA=25.000000 PF= 0.973355761650713  kWh=75.000000 NumCust=5.000000 ! KW= 6.046006 
New Load.261124314_1 Phases= 1  Bus1=261124314.1 kV= 7.19976905311778  XFKVA=50.000000 PF= 0.973355761650713  NumCust=0.000000 ! KW= 12.092012 
New Load.261124314_2 Phases= 1  Bus1=261124314.2 kV= 7.19976905311778  XFKVA=50.000000 PF= 0.967996898165801  NumCust=0.000000 ! KW= 8.96302 
New Load.261124314_3 Phases= 1  Bus1=261124314.3 kV= 7.19976905311778  XFKVA=50.000000 PF= 0.975871490412345  NumCust=0.000000 ! KW= 11.551748 
New Load.472684499_1 Phases= 1  Bus1=472684499.1 kV= 7.19976905311778  XFKVA=250.000000 PF= 0.973355761650713  kWh=63.000000 NumCust=2.000000 ! KW= 63 
New Load.472684499_2 Phases= 1  Bus1=472684499.2 kV= 7.19976905311778  XFKVA=250.000000 PF= 0.967996898165801  kWh=63.000000 NumCust=0.000000 ! KW= 63 
New Load.472684499_3 Phases= 1  Bus1=472684499.3 kV= 7.19976905311778  XFKVA=250.000000 PF= 0.975871490412345  kWh=63.000000 NumCust=0.000000 ! KW= 63 
New Load.258851180_2_1 Phases= 1  Bus1=258851180_2.1 kV= 7.19976905311778  XFKVA=10.000000 PF= 0.973355761650713  kWh=1.667000 NumCust=1.000000 ! KW= 2.418402 
New Load.258851180_2 Phases= 1  Bus1=258851180.2 kV= 7.19976905311778  XFKVA=10.000000 PF= 0.967996898165801  kWh=1.667000 NumCust=0.000000 ! KW= 1.792604 
New Load.258851180_3 Phases= 1  Bus1=258851180.3 kV= 7.19976905311778  XFKVA=10.000000 PF= 0.975871490412345  kWh=1.667000 NumCust=0.000000 ! KW= 2.31035 
New Load.261124288_1 Phases= 1  Bus1=261124288.1 kV= 7.19976905311778  XFKVA=500.000000 PF= 0.973355761650713  NumCust=0.000000 ! KW= 0 
New Load.261124288_2 Phases= 1  Bus1=261124288.2 kV= 7.19976905311778  XFKVA=500.000000 PF= 0.967996898165801  NumCust=0.000000 ! KW= 0 
New Load.261124288_3 Phases= 1  Bus1=261124288.3 kV= 7.19976905311778  XFKVA=500.000000 PF= 0.975871490412345  NumCust=0.000000 ! KW= 0 
New Load.263514841_1 Phases= 1  Bus1=263514841.1 kV= 7.19976905311778  XFKVA=50.000000 PF= 0.973355761650713  kWh=29.870000 NumCust=2.000000 ! KW= 12.092012 
New Load.263514841_2 Phases= 1  Bus1=263514841.2 kV= 7.19976905311778  XFKVA=50.000000 PF= 0.967996898165801  kWh=29.870000 NumCust=0.000000 ! KW= 8.96302 
New Load.263514841_3 Phases= 1  Bus1=263514841.3 kV= 7.19976905311778  XFKVA=50.000000 PF= 0.975871490412345  kWh=29.870000 NumCust=0.000000 ! KW= 11.551748 
New Load.258850960_1 Phases= 1  Bus1=258850960.1 kV= 7.19976905311778  XFKVA=25.000000 PF= 0.973355761650713  NumCust=0.000000 ! KW= 6.046006 
New Load.258850960_2 Phases= 1  Bus1=258850960.2 kV= 7.19976905311778  XFKVA=25.000000 PF= 0.967996898165801  NumCust=0.000000 ! KW= 4.48151 
New Load.258850960_3 Phases= 1  Bus1=258850960.3 kV= 7.19976905311778  XFKVA=25.000000 PF= 0.975871490412345  NumCust=0.000000 ! KW= 5.775874 
New Load.288683093_1 Phases= 1  Bus1=288683093.1 kV= 7.19976905311778  XFKVA=1534.000000 PF= 0.973355761650713  kWh=217.200000 NumCust=1.000000 ! KW= 217.2 
New Load.288683093_2 Phases= 1  Bus1=288683093.2 kV= 7.19976905311778  XFKVA=1533.000000 PF= 0.967996898165801  kWh=217.200000 NumCust=0.000000 ! KW= 217.2 
New Load.288683093_3 Phases= 1  Bus1=288683093.3 kV= 7.19976905311778  XFKVA=1533.000000 PF= 0.975871490412345  kWh=217.200000 NumCust=0.000000 ! KW= 217.2 
New Load.260784275_3 Phases= 1  Bus1=260784275.3 kV= 7.19976905311778  XFKVA=50.000000 PF= 0.975871490412345  kWh=84.000000 NumCust=13.000000 ! KW= 11.551748 
New Load.258840361_3 Phases= 1  Bus1=258840361.3 kV= 7.19976905311778  XFKVA=25.000000 PF= 0.975871490412345  NumCust=0.000000 ! KW= 5.775874 
New Load.261002775_1 Phases= 1  Bus1=261002775.1 kV= 7.19976905311778  XFKVA=50.000000 PF= 0.973355761650713  kWh=38.000000 NumCust=4.000000 ! KW= 12.092012 
New Load.264516154_2 Phases= 1  Bus1=264516154.2 kV= 7.19976905311778  XFKVA=10.000000 PF= 0.967996898165801  kWh=5.000000 NumCust=2.000000 ! KW= 1.792604 
New Load.258850941_1 Phases= 1  Bus1=258850941.1 kV= 7.19976905311778  XFKVA=100.000000 PF= 0.973355761650713  NumCust=1.000000 ! KW= 0 
...
!New Load.259005026_2_2 Phases= 1  Bus1=259005026_2.2 kV= 7.19976905311778  XFKVA=25.000000 PF= 0.967996898165801  NumCust=0.000000 ! KW= 4.48151 
New Load.260784245_3 Phases= 1  Bus1=260784245.3 kV= 7.19976905311778  XFKVA=75.000000 PF= 0.975871490412345  kWh=60.000000 NumCust=8.000000 ! KW= 17.327622 
New Load.263514832_1 Phases= 1  Bus1=263514832.1 kV= 7.19976905311778  XFKVA=250.000000 PF= 0.973355761650713  NumCust=0.000000 ! KW= 0 
New Load.263514832_2 Phases= 1  Bus1=263514832.2 kV= 7.19976905311778  XFKVA=250.000000 PF= 0.967996898165801  NumCust=0.000000 ! KW= 0 
New Load.263514832_3 Phases= 1  Bus1=263514832.3 kV= 7.19976905311778  XFKVA=250.000000 PF= 0.975871490412345  NumCust=0.000000 ! KW= 0 
New Load.261002746_1 Phases= 1  Bus1=261002746.1 kV= 7.19976905311778  XFKVA=25.000000 PF= 0.973355761650713  kWh=56.000000 NumCust=6.000000 ! KW= 6.046006 
New Load.259005041_2 Phases= 1  Bus1=259005041.2 kV= 7.19976905311778  XFKVA=50.000000 PF= 0.967996898165801  NumCust=0.000000 ! KW= 8.96302 
New Load.263514814_1 Phases= 1  Bus1=263514814.1 kV= 7.19976905311778  XFKVA=50.000000 PF= 0.973355761650713  kWh=34.240000 NumCust=1.000000 ! KW= 12.092012 
New Load.263514814_2 Phases= 1  Bus1=263514814.2 kV= 7.19976905311778  XFKVA=50.000000 PF= 0.967996898165801  kWh=34.240000 NumCust=0.000000 ! KW= 8.96302 
New Load.263514814_3 Phases= 1  Bus1=263514814.3 kV= 7.19976905311778  XFKVA=50.000000 PF= 0.975871490412345  kWh=34.240000 NumCust=0.000000 ! KW= 11.551748 
New Load.261002721_2 Phases= 1  Bus1=261002721.2 kV= 7.19976905311778  XFKVA=25.000000 PF= 0.967996898165801  kWh=61.000000 NumCust=6.000000 ! KW= 4.48151 
New Load.260972095_2 Phases= 1  Bus1=260972095.2 kV= 7.19976905311778  XFKVA=50.000000 PF= 0.967996898165801  kWh=37.000000 NumCust=4.000000 ! KW= 8.96302 
New Load.258850989_2 Phases= 1  Bus1=258850989.2 kV= 7.19976905311778  XFKVA=25.000000 PF= 0.967996898165801  kWh=18.000000 NumCust=1.000000 ! KW= 4.48151 
