03_OpenDSS_Circuits/ERaleigh_Circuit_Opendss/T5120B01_VLN_Node.Txt

LINE-GROUND and LINE-LINE VOLTAGES BY BUS & NODE

Bus               Node    VLN (kV)   Angle      pu     Base kV    Node-Node   VLL (kV)  Angle      pu

T5120B01_1 ...... 1       7.4157 /_   -1.3      1.03    12.470        1-2     12.842 /_   28.4    1.0298
   -              2       7.3904 /_ -121.6    1.0265    12.470        2-3      12.83 /_  -91.5    1.0289
   -              3       7.4285 /_  118.4    1.0318    12.470        3-1     12.839 /_  148.5    1.0296
T5120B01_1_REG .. 1       8.1557 /_   -1.4    1.1328    12.470        1-2     14.123 /_   28.4    1.1326
   -              2       8.1276 /_ -121.7    1.1289    12.470        2-3      14.11 /_  -91.6    1.1315
   -              3       8.1697 /_  118.3    1.1348    12.470        3-1      14.12 /_  148.4    1.1324
26259236 ........ 1       8.1144 /_   -1.9    1.1271    12.470        1-2     14.051 /_   27.9    1.1268
   -              2        8.086 /_ -122.2    1.1231    12.470        2-3     14.045 /_  -92.1    1.1263
   -              3       8.1339 /_  117.8    1.1298    12.470        3-1     14.052 /_  147.9    1.1268
26259145 ........ 1       8.1109 /_   -1.9    1.1266    12.470        1-2     14.045 /_   27.9    1.1263
   -              2       8.0827 /_ -122.2    1.1227    12.470        2-3     14.039 /_  -92.1    1.1258
   -              3       8.1299 /_  117.8    1.1292    12.470        3-1     14.045 /_  147.9    1.1263
26512068 ........ 1       8.1085 /_   -1.9    1.1263    12.470        1-2     14.041 /_   27.8     1.126
   -              2       8.0803 /_ -122.2    1.1223    12.470        2-3     14.035 /_  -92.1    1.1255
   -              3       8.1272 /_  117.8    1.1289    12.470        3-1     14.041 /_  147.9     1.126
26512071 ........ 1       8.1085 /_   -1.9    1.1263    12.470        1-2     14.041 /_   27.8     1.126
   -              2       8.0803 /_ -122.2    1.1223    12.470        2-3     14.035 /_  -92.1    1.1255
   -              3       8.1272 /_  117.8    1.1288    12.470        3-1     14.041 /_  147.9     1.126
103004798 ....... 1       8.1168 /_   -1.9    1.1274    12.470        1-2     14.056 /_   27.9    1.1272
   -              2       8.0884 /_ -122.2    1.1235    12.470        2-3     14.049 /_  -92.1    1.1267
   -              3       8.1366 /_  117.8    1.1302    12.470        3-1     14.056 /_  147.9    1.1272
103004800 ....... 1       8.1163 /_   -1.9    1.1273    12.470        1-2     14.055 /_   27.9    1.1271
   -              2       8.0879 /_ -122.2    1.1234    12.470        2-3     14.049 /_  -92.1    1.1266
   -              3       8.1361 /_  117.8    1.1301    12.470        3-1     14.055 /_  147.9    1.1271
25028592 ........ 1       8.1306 /_   -1.8    1.1293    12.470        1-2      14.08 /_   28.0    1.1291
   -              2       8.1017 /_ -122.1    1.1253    12.470        2-3     14.072 /_  -92.0    1.1285
   -              3       8.1507 /_  118.0    1.1321    12.470        3-1      14.08 /_  148.1    1.1291
27043772 ........ 1       8.1305 /_   -1.8    1.1293    12.470        1-2      14.08 /_   28.0    1.1291
   -              2       8.1016 /_ -122.1    1.1253    12.470        2-3     14.072 /_  -92.0    1.1285
   -              3       8.1505 /_  118.0    1.1321    12.470        3-1      14.08 /_  148.1    1.1291
26259149 ........ 1       8.1107 /_   -1.9    1.1265    12.470        1-2     14.045 /_   27.9    1.1263
   -              2       8.0824 /_ -122.2    1.1226    12.470        2-3     14.038 /_  -92.1    1.1258
   -              3       8.1297 /_  117.8    1.1292    12.470        3-1     14.045 /_  147.9    1.1263
27043862 ........ 1       8.1102 /_   -1.9    1.1265    12.470        1-2     14.044 /_   27.9    1.1262
   -              2        8.082 /_ -122.2    1.1226    12.470        2-3     14.038 /_  -92.1    1.1257
   -              3       8.1292 /_  117.8    1.1291    12.470        3-1     14.044 /_  147.9    1.1262
103013365 ....... 1       8.1076 /_   -2.0    1.1261    12.470        1-2     14.039 /_   27.8    1.1258
   -              2       8.0794 /_ -122.2    1.1222    12.470        2-3     14.033 /_  -92.1    1.1253
   -              3       8.1262 /_  117.8    1.1287    12.470        3-1     14.039 /_  147.9    1.1259
103013366 ....... 1       8.1076 /_   -2.0    1.1261    12.470        1-2     14.039 /_   27.8    1.1258
   -              2       8.0793 /_ -122.2    1.1222    12.470        2-3     14.033 /_  -92.1    1.1253
   -              3       8.1261 /_  117.8    1.1287    12.470        3-1     14.039 /_  147.9    1.1258
103013368 ....... 1       8.1076 /_   -2.0    1.1261    12.470        1-2     14.039 /_   27.8    1.1258
   -              2       8.0793 /_ -122.2    1.1222    12.470        2-3     14.033 /_  -92.1    1.1253
   -              3       8.1261 /_  117.8    1.1287    12.470        3-1     14.039 /_  147.9    1.1258
103013369 ....... 1       8.1075 /_   -2.0    1.1261    12.470        1-2     14.039 /_   27.8    1.1258
   -              2       8.0792 /_ -122.2    1.1222    12.470        2-3     14.033 /_  -92.1    1.1253
   -              3        8.126 /_  117.8    1.1287    12.470        3-1     14.039 /_  147.9    1.1258
26259153 ........ 1       8.1106 /_   -1.9    1.1265    12.470        1-2     14.045 /_   27.9    1.1263
   -              2       8.0824 /_ -122.2    1.1226    12.470        2-3     14.038 /_  -92.1    1.1258
   -              3       8.1297 /_  117.8    1.1292    12.470        3-1     14.045 /_  147.9    1.1263
26424757 ........ 1       8.1087 /_   -1.9    1.1263    12.470        1-2     14.041 /_   27.8     1.126
   -              2       8.0804 /_ -122.2    1.1224    12.470        2-3     14.035 /_  -92.1    1.1255
   -              3       8.1274 /_  117.8    1.1289    12.470        3-1     14.041 /_  147.9     1.126
1823870 ......... 1       8.1554 /_   -1.4    1.1328    12.470        1-2     14.123 /_   28.4    1.1325
   -              2       8.1274 /_ -121.7    1.1289    12.470        2-3      14.11 /_  -91.6    1.1315
   -              3       8.1695 /_  118.3    1.1347    12.470        3-1      14.12 /_  148.4    1.1323
26595445 ........ 1       8.1537 /_   -1.5    1.1325    12.470        1-2     14.119 /_   28.3    1.1323
   -              2       8.1253 /_ -121.8    1.1286    12.470        2-3     14.107 /_  -91.6    1.1312
   -              3       8.1676 /_  118.3    1.1345    12.470        3-1     14.117 /_  148.4    1.1321
26424531 ........ 1       8.1175 /_   -1.9    1.1275    12.470        1-2     14.057 /_   27.9    1.1273
   -              2        8.089 /_ -122.2    1.1235    12.470        2-3     14.051 /_  -92.1    1.1267
   -              3       8.1374 /_  117.8    1.1303    12.470        3-1     14.057 /_  147.9    1.1273
103332076 ....... 1       8.1174 /_   -1.9    1.1275    12.470        1-2     14.057 /_   27.9    1.1273
   -              2        8.089 /_ -122.2    1.1235    12.470        2-3     14.051 /_  -92.1    1.1267
   -              3       8.1373 /_  117.8    1.1303    12.470        3-1     14.057 /_  147.9    1.1273
103332079 ....... 1       8.1175 /_   -1.9    1.1275    12.470
26259150 ........ 1       8.1106 /_   -1.9    1.1265    12.470        1-2     14.045 /_   27.9    1.1263
   -              2       8.0824 /_ -122.2    1.1226    12.470        2-3     14.038 /_  -92.1    1.1258
   -              3       8.1297 /_  117.8    1.1292    12.470        3-1     14.045 /_  147.9    1.1263
26259151 ........ 1       8.1106 /_   -1.9    1.1265    12.470        1-2     14.045 /_   27.9    1.1263
   -              2       8.0824 /_ -122.2    1.1226    12.470        2-3     14.038 /_  -92.1    1.1258
   -              3       8.1296 /_  117.8    1.1292    12.470        3-1     14.045 /_  147.9    1.1263
26259147 ........ 1       8.1107 /_   -1.9    1.1266    12.470        1-2     14.045 /_   27.9    1.1263
   -              2       8.0825 /_ -122.2    1.1226    12.470        2-3     14.039 /_  -92.1    1.1258
   -              3       8.1298 /_  117.8    1.1292    12.470        3-1     14.045 /_  147.9    1.1263
26259148 ........ 1       8.1107 /_   -1.9    1.1266    12.470        1-2     14.045 /_   27.9    1.1263
   -              2       8.0824 /_ -122.2    1.1226    12.470        2-3     14.038 /_  -92.1    1.1258
   -              3       8.1297 /_  117.8    1.1292    12.470        3-1     14.045 /_  147.9    1.1263
103013278 ....... 1       8.1078 /_   -2.0    1.1261    12.470        1-2     14.039 /_   27.8    1.1259
   -              2       8.0795 /_ -122.2    1.1222    12.470        2-3     14.033 /_  -92.1    1.1254
   -              3       8.1263 /_  117.8    1.1287    12.470        3-1      14.04 /_  147.9    1.1259
103013321 ....... 1       8.1077 /_   -2.0    1.1261    12.470        1-2     14.039 /_   27.8    1.1258
   -              2       8.0794 /_ -122.2    1.1222    12.470        2-3     14.033 /_  -92.1    1.1253
   -              3       8.1262 /_  117.8    1.1287    12.470        3-1     14.039 /_  147.9    1.1259
26424527 ........ 1       8.1166 /_   -1.9    1.1274    12.470        1-2     14.055 /_   27.9    1.1271
   -              2       8.0882 /_ -122.2    1.1234    12.470        2-3     14.049 /_  -92.1    1.1266
   -              3       8.1365 /_  117.8    1.1301    12.470        3-1     14.056 /_  147.9    1.1272
103004792 ....... 1       8.1156 /_   -1.9    1.1272    12.470        1-2     14.053 /_   27.9     1.127
   -              2       8.0872 /_ -122.2    1.1233    12.470        2-3     14.047 /_  -92.1    1.1265
   -              3       8.1352 /_  117.8      1.13    12.470        3-1     14.054 /_  147.9     1.127
26512066 ........ 1       8.1085 /_   -1.9    1.1263    12.470        1-2     14.041 /_   27.8     1.126
   -              2       8.0803 /_ -122.2    1.1223    12.470        2-3     14.035 /_  -92.1    1.1255
   -              3       8.1272 /_  117.8    1.1288    12.470        3-1     14.041 /_  147.9     1.126
26512070 ........ 1       8.1085 /_   -1.9    1.1263    12.470        1-2     14.041 /_   27.8     1.126
   -              2       8.0803 /_ -122.2    1.1223    12.470        2-3     14.035 /_  -92.1    1.1255
   -              3       8.1272 /_  117.8    1.1288    12.470        3-1     14.041 /_  147.9     1.126
26449577 ........ 1       8.1236 /_   -1.9    1.1283    12.470        1-2     14.068 /_   27.9    1.1281
   -              2       8.0949 /_ -122.2    1.1244    12.470        2-3     14.061 /_  -92.1    1.1276
   -              3       8.1441 /_  117.9    1.1312    12.470        3-1     14.068 /_  148.0    1.1282
26449578 ........ 1       8.1177 /_   -1.9    1.1275    12.470        1-2     14.057 /_   27.9    1.1273
   -              2       8.0893 /_ -122.2    1.1236    12.470        2-3     14.051 /_  -92.1    1.1268
   -              3       8.1376 /_  117.8    1.1303    12.470        3-1     14.058 /_  147.9    1.1273
103013238 ....... 1       8.1078 /_   -2.0    1.1262    12.470        1-2      14.04 /_   27.8    1.1259
   -              2       8.0796 /_ -122.2    1.1222    12.470        2-3     14.033 /_  -92.1    1.1254
   -              3       8.1264 /_  117.8    1.1287    12.470        3-1      14.04 /_  147.9    1.1259
103013242 ....... 1       8.1078 /_   -2.0    1.1262    12.470        1-2      14.04 /_   27.8    1.1259
   -              2       8.0796 /_ -122.2    1.1222    12.470        2-3     14.033 /_  -92.1    1.1254
   -              3       8.1264 /_  117.8    1.1287    12.470        3-1      14.04 /_  147.9    1.1259
103013241 ....... 1       8.1078 /_   -2.0    1.1262    12.470        1-2      14.04 /_   27.8    1.1259
   -              2       8.0796 /_ -122.2    1.1222    12.470        2-3     14.033 /_  -92.1    1.1254
   -              3       8.1264 /_  117.8    1.1287    12.470        3-1      14.04 /_  147.9    1.1259
103013240 ....... 1       8.1078 /_   -2.0    1.1262    12.470        1-2      14.04 /_   27.8    1.1259
   -              2       8.0796 /_ -122.2    1.1222    12.470        2-3     14.033 /_  -92.1    1.1254
   -              3       8.1264 /_  117.8    1.1287    12.470        3-1      14.04 /_  147.9    1.1259
103013239 ....... 1       8.1078 /_   -2.0    1.1262    12.470        1-2      14.04 /_   27.8    1.1259
   -              2       8.0796 /_ -122.2    1.1222    12.470        2-3     14.033 /_  -92.1    1.1254
   -              3       8.1264 /_  117.8    1.1287    12.470        3-1      14.04 /_  147.9    1.1259
103004824 ....... 1       8.1295 /_   -1.8    1.1292    12.470        1-2     14.078 /_   28.0    1.1289
   -              2       8.1006 /_ -122.1    1.1252    12.470        2-3     14.071 /_  -92.0    1.1284
   -              3       8.1497 /_  117.9     1.132    12.470        3-1     14.078 /_  148.0     1.129
27043849 ........ 1      0.26136 /_ -122.1  0.036302    12.470        1-2     7.8392 /_   57.9   0.62864
   -              2       8.1005 /_ -122.1    1.1251    12.470        2-3     7.8392 /_ -122.1   0.62864
   -              3      0.26136 /_ -122.1  0.036302    12.470        3-1 2.8422E-017 /_    0.0 2.2792E-018
26424752 ........ 1       8.1084 /_   -1.9    1.1262    12.470        1-2     14.041 /_   27.8     1.126
   -              2       8.0802 /_ -122.2    1.1223    12.470        2-3     14.034 /_  -92.1    1.1255
   -              3       8.1271 /_  117.8    1.1288    12.470        3-1     14.041 /_  147.9     1.126
103013265 ....... 1       8.1079 /_   -1.9    1.1262    12.470        1-2      14.04 /_   27.8    1.1259
   -              2       8.0797 /_ -122.2    1.1222    12.470        2-3     14.033 /_  -92.1    1.1254
   -              3       8.1265 /_  117.8    1.1288    12.470        3-1      14.04 /_  147.9    1.1259
103004805 ....... 1      0.26246 /_  117.8  0.036456    12.470        1-2 2.8422E-017 /_  180.0 2.2792E-018
   -              2      0.26246 /_  117.8  0.036456    12.470        2-3     7.8736 /_  -62.2   0.63141
   -              3       8.1361 /_  117.8    1.1301    12.470        3-1     7.8736 /_  117.8   0.63141
26424528 ........ 1       8.1168 /_   -1.9    1.1274    12.470        1-2     14.056 /_   27.9    1.1272
   -              2       8.0884 /_ -122.2    1.1235    12.470        2-3     14.049 /_  -92.1    1.1267
   -              3       8.1366 /_  117.8    1.1302    12.470        3-1     14.056 /_  147.9    1.1272
103332075 ....... 1       8.1167 /_   -1.9    1.1274    12.470        1-2     14.056 /_   27.9    1.1271
   -              2       8.0883 /_ -122.2    1.1234    12.470        2-3     14.049 /_  -92.1    1.1266
   -              3       8.1365 /_  117.8    1.1301    12.470        3-1     14.056 /_  147.9    1.1272
26424532 ........ 1       8.1174 /_   -1.9    1.1275    12.470        1-2     14.057 /_   27.9    1.1273
   -              2        8.089 /_ -122.2    1.1235    12.470        2-3     14.051 /_  -92.1    1.1267
   -              3       8.1373 /_  117.8    1.1303    12.470        3-1     14.057 /_  147.9    1.1273
26424523 ........ 1       8.1174 /_   -1.9    1.1275    12.470        1-2     14.057 /_   27.9    1.1272
   -              2        8.089 /_ -122.2    1.1235    12.470        2-3      14.05 /_  -92.1    1.1267
   -              3       8.1373 /_  117.8    1.1302    12.470        3-1     14.057 /_  147.9    1.1273
26424530 ........ 1       8.1173 /_   -1.9    1.1275    12.470        1-2     14.057 /_   27.9    1.1272
   -              2       8.0889 /_ -122.2    1.1235    12.470        2-3      14.05 /_  -92.1    1.1267
   -              3       8.1372 /_  117.8    1.1302    12.470        3-1     14.057 /_  147.9    1.1273
26424529 ........ 1        8.117 /_   -1.9    1.1274    12.470        1-2     14.056 /_   27.9    1.1272
   -              2       8.0886 /_ -122.2    1.1235    12.470        2-3      14.05 /_  -92.1    1.1267
   -              3       8.1368 /_  117.8    1.1302    12.470        3-1     14.056 /_  147.9    1.1272
26449576 ........ 1       8.1175 /_   -1.9    1.1275    12.470        1-2     14.057 /_   27.9    1.1273
   -              2       8.0891 /_ -122.2    1.1236    12.470        2-3     14.051 /_  -92.1    1.1268
   -              3       8.1374 /_  117.8    1.1303    12.470        3-1     14.057 /_  147.9    1.1273
27145133 ........ 1       8.1175 /_   -1.9    1.1275    12.470        1-2     14.057 /_   27.9    1.1273
   -              2       8.0891 /_ -122.2    1.1236    12.470        2-3     14.051 /_  -92.1    1.1268
   -              3       8.1374 /_  117.8    1.1303    12.470        3-1     14.057 /_  147.9    1.1273
27145132 ........ 1       8.1175 /_   -1.9    1.1275    12.470        1-2     14.057 /_   27.9    1.1273
   -              2       8.0891 /_ -122.2    1.1236    12.470        2-3     14.051 /_  -92.1    1.1268
   -              3       8.1374 /_  117.8    1.1303    12.470        3-1     14.057 /_  147.9    1.1273
27145131 ........ 1       8.1175 /_   -1.9    1.1275    12.470        1-2     14.057 /_   27.9    1.1273
   -              2       8.0891 /_ -122.2    1.1236    12.470        2-3     14.051 /_  -92.1    1.1268
   -              3       8.1374 /_  117.8    1.1303    12.470        3-1     14.057 /_  147.9    1.1273
27145130 ........ 1       8.1175 /_   -1.9    1.1275    12.470        1-2     14.057 /_   27.9    1.1273
   -              2       8.0891 /_ -122.2    1.1236    12.470        2-3     14.051 /_  -92.1    1.1268
   -              3       8.1374 /_  117.8    1.1303    12.470        3-1     14.057 /_  147.9    1.1273
103013299 ....... 1       8.1076 /_   -2.0    1.1261    12.470        1-2     14.039 /_   27.8    1.1258
   -              2       8.0794 /_ -122.2    1.1222    12.470        2-3     14.033 /_  -92.1    1.1253
   -              3       8.1262 /_  117.8    1.1287    12.470        3-1     14.039 /_  147.9    1.1259
103013303 ....... 1       8.1076 /_   -2.0    1.1261    12.470        1-2     14.039 /_   27.8    1.1258
   -              2       8.0794 /_ -122.2    1.1222    12.470        2-3     14.033 /_  -92.1    1.1253
   -              3       8.1262 /_  117.8    1.1287    12.470        3-1     14.039 /_  147.9    1.1259
103013301 ....... 1       8.1076 /_   -2.0    1.1261    12.470        1-2     14.039 /_   27.8    1.1258
   -              2       8.0794 /_ -122.2    1.1222    12.470        2-3     14.033 /_  -92.1    1.1253
   -              3       8.1262 /_  117.8    1.1287    12.470        3-1     14.039 /_  147.9    1.1259
103013302 ....... 1       8.1076 /_   -2.0    1.1261    12.470        1-2     14.039 /_   27.8    1.1258
   -              2       8.0794 /_ -122.2    1.1222    12.470        2-3     14.033 /_  -92.1    1.1253
   -              3       8.1262 /_  117.8    1.1287    12.470        3-1     14.039 /_  147.9    1.1259
103013300 ....... 1       8.1076 /_   -2.0    1.1261    12.470        1-2     14.039 /_   27.8    1.1258
   -              2       8.0794 /_ -122.2    1.1222    12.470        2-3     14.033 /_  -92.1    1.1253
   -              3       8.1262 /_  117.8    1.1287    12.470        3-1     14.039 /_  147.9    1.1259
26512065 ........ 1       8.1085 /_   -1.9    1.1263    12.470        1-2     14.041 /_   27.8     1.126
   -              2       8.0803 /_ -122.2    1.1223    12.470        2-3     14.035 /_  -92.1    1.1255
   -              3       8.1272 /_  117.8    1.1289    12.470        3-1     14.041 /_  147.9     1.126
27145217 ........ 1       8.1085 /_   -1.9    1.1263    12.470        1-2     14.041 /_   27.8     1.126
   -              2       8.0803 /_ -122.2    1.1223    12.470        2-3     14.035 /_  -92.1    1.1255
   -              3       8.1272 /_  117.8    1.1289    12.470        3-1     14.041 /_  147.9     1.126
27145220 ........ 1       8.1085 /_   -1.9    1.1263    12.470        1-2     14.041 /_   27.8     1.126
   -              2       8.0803 /_ -122.2    1.1223    12.470        2-3     14.035 /_  -92.1    1.1255
   -              3       8.1272 /_  117.8    1.1289    12.470        3-1     14.041 /_  147.9     1.126
26449575 ........ 1       8.1168 /_   -1.9    1.1274    12.470        1-2     14.056 /_   27.9    1.1272
   -              2       8.0884 /_ -122.2    1.1235    12.470        2-3     14.049 /_  -92.1    1.1267
   -              3       8.1366 /_  117.8    1.1302    12.470        3-1     14.056 /_  147.9    1.1272
27145137 ........ 1       8.1168 /_   -1.9    1.1274    12.470        1-2     14.056 /_   27.9    1.1272
   -              2       8.0884 /_ -122.2    1.1235    12.470        2-3     14.049 /_  -92.1    1.1267
   -              3       8.1366 /_  117.8    1.1302    12.470        3-1     14.056 /_  147.9    1.1272
27145219 ........ 1       8.1085 /_   -1.9    1.1263    12.470        1-2     14.041 /_   27.8     1.126
   -              2       8.0803 /_ -122.2    1.1223    12.470        2-3     14.035 /_  -92.1    1.1255
   -              3       8.1272 /_  117.8    1.1289    12.470        3-1     14.041 /_  147.9     1.126
27145136 ........ 1       8.1168 /_   -1.9    1.1274    12.470        1-2     14.056 /_   27.9    1.1272
   -              2       8.0884 /_ -122.2    1.1235    12.470        2-3     14.049 /_  -92.1    1.1267
   -              3       8.1366 /_  117.8    1.1302    12.470        3-1     14.056 /_  147.9    1.1272
27145218 ........ 1       8.1085 /_   -1.9    1.1263    12.470        1-2     14.041 /_   27.8     1.126
   -              2       8.0803 /_ -122.2    1.1223    12.470        2-3     14.035 /_  -92.1    1.1255
...
T5120B01_10000013 1       8.1453 /_   -1.6    1.1314    12.470        1-2     14.105 /_   28.2    1.1311
   -              2       8.1171 /_ -121.9    1.1275    12.470        2-3     14.095 /_  -91.8    1.1303
   -              3       8.1619 /_  118.2    1.1337    12.470        3-1     14.104 /_  148.3     1.131
1823868 ......... 1       8.1453 /_   -1.6    1.1314    12.470        1-2     14.105 /_   28.2    1.1311
   -              2       8.1171 /_ -121.9    1.1275    12.470        2-3     14.095 /_  -91.8    1.1303
   -              3       8.1619 /_  118.2    1.1337    12.470        3-1     14.104 /_  148.3     1.131
1823815 ......... 1        8.151 /_   -1.5    1.1322    12.470        1-2     14.115 /_   28.3    1.1319
   -              2       8.1227 /_ -121.8    1.1282    12.470        2-3     14.103 /_  -91.7     1.131
   -              3       8.1658 /_  118.3    1.1342    12.470        3-1     14.113 /_  148.4    1.1317
1992535 ......... 1       8.1238 /_   -1.9    1.1284    12.470        1-2     14.068 /_   27.9    1.1282
   -              2       8.0951 /_ -122.2    1.1244    12.470        2-3     14.062 /_  -92.1    1.1276
   -              3       8.1444 /_  117.9    1.1312    12.470        3-1     14.069 /_  148.0    1.1282
1823850 ......... 1       8.1448 /_   -1.6    1.1313    12.470        1-2     14.104 /_   28.2    1.1311
   -              2       8.1167 /_ -121.9    1.1274    12.470        2-3     14.094 /_  -91.8    1.1303
   -              3       8.1616 /_  118.2    1.1336    12.470        3-1     14.103 /_  148.3     1.131
1823818 ......... 1        8.143 /_   -1.6     1.131    12.470        1-2     14.101 /_   28.2    1.1308
   -              2       8.1149 /_ -121.9    1.1271    12.470        2-3     14.092 /_  -91.8    1.1301
   -              3       8.1605 /_  118.1    1.1335    12.470        3-1     14.101 /_  148.2    1.1308
1992553 ......... 1       8.1279 /_   -1.8    1.1289    12.470        1-2     14.075 /_   28.0    1.1287
   -              2        8.099 /_ -122.1    1.1249    12.470        2-3     14.068 /_  -92.0    1.1282
   -              3       8.1482 /_  117.9    1.1318    12.470        3-1     14.076 /_  148.0    1.1288
25113875 ........ 1       8.1388 /_   -1.7    1.1305    12.470        1-2     14.094 /_   28.1    1.1302
   -              2       8.1104 /_ -122.0    1.1265    12.470        2-3     14.086 /_  -91.8    1.1296
   -              3       8.1575 /_  118.1    1.1331    12.470        3-1     14.094 /_  148.2    1.1302
1823847 ......... 2       8.1104 /_ -122.0    1.1265    12.470
1823813 ......... 1       8.1485 /_   -1.5    1.1318    12.470        1-2      14.11 /_   28.3    1.1315
   -              2       8.1204 /_ -121.8    1.1279    12.470        2-3       14.1 /_  -91.7    1.1307
   -              3       8.1642 /_  118.2     1.134    12.470        3-1     14.109 /_  148.3    1.1314
1992550 ......... 1        8.127 /_   -1.8    1.1288    12.470        1-2     14.074 /_   28.0    1.1286
   -              2       8.0981 /_ -122.1    1.1248    12.470        2-3     14.067 /_  -92.0     1.128
   -              3       8.1473 /_  117.9    1.1316    12.470        3-1     14.074 /_  148.0    1.1286
T5120B01_10000012 1       8.1308 /_   -1.8    1.1293    12.470        1-2      14.08 /_   28.0    1.1291
   -              2       8.1019 /_ -122.1    1.1253    12.470        2-3     14.073 /_  -92.0    1.1285
   -              3       8.1508 /_  118.0    1.1321    12.470        3-1      14.08 /_  148.1    1.1291
1823824 ......... 2       8.1103 /_ -122.0    1.1265    12.470
GT28BK_103013451  1       8.1261 /_   -1.8    1.1287    12.470        1-2     14.072 /_   27.9    1.1285
   -              2       8.0972 /_ -122.2    1.1247    12.470        2-3     14.065 /_  -92.0    1.1279
   -              3       8.1465 /_  117.9    1.1315    12.470        3-1     14.072 /_  148.0    1.1285
1992539 ......... 1       8.1245 /_   -1.9    1.1285    12.470        1-2     14.069 /_   27.9    1.1283
   -              2       8.0957 /_ -122.2    1.1245    12.470        2-3     14.063 /_  -92.1    1.1277
   -              3        8.145 /_  117.9    1.1313    12.470        3-1      14.07 /_  148.0    1.1283
103602979 ....... 1       8.1072 /_   -2.0    1.1261    12.470        1-2     14.038 /_   27.8    1.1258
   -              2       8.0789 /_ -122.2    1.1221    12.470        2-3     14.032 /_  -92.1    1.1253
   -              3       8.1257 /_  117.8    1.1286    12.470        3-1     14.039 /_  147.9    1.1258
26824809 ........ 1       8.1163 /_   -1.9    1.1273    12.470        1-2     14.055 /_   27.9    1.1271
   -              2       8.0879 /_ -122.2    1.1234    12.470        2-3     14.048 /_  -92.1    1.1266
   -              3       8.1361 /_  117.8    1.1301    12.470        3-1     14.055 /_  147.9    1.1271
1823845 ......... 1       8.1305 /_   -1.8    1.1293    12.470        1-2      14.08 /_   28.0    1.1291
   -              2       8.1016 /_ -122.1    1.1253    12.470        2-3     14.072 /_  -92.0    1.1285
   -              3       8.1505 /_  118.0    1.1321    12.470        3-1      14.08 /_  148.1    1.1291
1992431 ......... 1       8.1102 /_   -1.9    1.1265    12.470        1-2     14.044 /_   27.9    1.1262
   -              2        8.082 /_ -122.2    1.1226    12.470        2-3     14.038 /_  -92.1    1.1257
   -              3       8.1292 /_  117.8    1.1291    12.470        3-1     14.044 /_  147.9    1.1262
26172320 ........ 1      0.26136 /_ -122.1  0.036302    12.470        1-2     7.8392 /_   57.9   0.62864
   -              2       8.1005 /_ -122.1    1.1251    12.470        2-3     7.8392 /_ -122.1   0.62864
   -              3      0.26136 /_ -122.1  0.036302    12.470        3-1 6.3553E-017 /_   26.6 5.0965E-018
26259143 ........ 1       8.1108 /_   -1.9    1.1266    12.470        1-2     14.045 /_   27.9    1.1263
   -              2       8.0825 /_ -122.2    1.1226    12.470        2-3     14.039 /_  -92.1    1.1258
   -              3       8.1298 /_  117.8    1.1292    12.470        3-1     14.045 /_  147.9    1.1263
103004796 ....... 1       8.1163 /_   -1.9    1.1273    12.470        1-2     14.055 /_   27.9    1.1271
   -              2       8.0879 /_ -122.2    1.1234    12.470        2-3     14.048 /_  -92.1    1.1266
   -              3       8.1361 /_  117.8    1.1301    12.470        3-1     14.055 /_  147.9    1.1271
25680881 ........ 1            0 /_    0.0         0    12.470        1-2          0 /_    0.0         0
   -              2            0 /_    0.0         0    12.470        2-3          0 /_    0.0         0
   -              3            0 /_    0.0         0    12.470        3-1          0 /_    0.0         0
26424675 ........ 1       8.1107 /_   -1.9    1.1265    12.470        1-2     14.045 /_   27.9    1.1263
   -              2       8.0824 /_ -122.2    1.1226    12.470        2-3     14.038 /_  -92.1    1.1258
   -              3       8.1297 /_  117.8    1.1292    12.470        3-1     14.045 /_  147.9    1.1263
